
 OpenBabel12201709243D

 15 15  0  0  0  0  0  0  0  0999 V2000
    1.4355    0.7810   -0.5623 O   0  0  0  0  0  0  0  0  0  0  0  0
    2.2732   -0.0034    0.1944 N   0  0  0  0  0  0  0  0  0  0  0  0
    2.3510   -1.1834   -0.0783 O   0  0  0  0  0  0  0  0  0  0  0  0
    3.0405    0.5556    1.2843 C   0  0  0  0  0  0  0  0  0  0  0  0
    2.9404    1.9211    1.5763 C   0  0  0  0  0  0  0  0  0  0  0  0
    3.6825    2.4597    2.6306 C   0  0  0  0  0  0  0  0  0  0  0  0
    4.5176    1.6354    3.3854 C   0  0  0  0  0  0  0  0  0  0  0  0
    5.4290    2.3033    4.6829 Cl  0  0  0  0  0  0  0  0  0  0  0  0
    4.6194    0.2746    3.0968 C   0  0  0  0  0  0  0  0  0  0  0  0
    3.8801   -0.2692    2.0439 C   0  0  0  0  0  0  0  0  0  0  0  0
    1.1157    0.0839   -1.1592 H   0  0  0  0  0  0  0  0  0  0  0  0
    2.2921    2.5723    0.9939 H   0  0  0  0  0  0  0  0  0  0  0  0
    3.6054    3.5200    2.8580 H   0  0  0  0  0  0  0  0  0  0  0  0
    5.2704   -0.3664    3.6858 H   0  0  0  0  0  0  0  0  0  0  0  0
    3.9627   -1.3317    1.8222 H   0  0  0  0  0  0  0  0  0  0  0  0
  1  2  1  0  0  0  0
  1 11  1  0  0  0  0
  2  3  2  0  0  0  0
  2  4  1  0  0  0  0
  4  5  2  0  0  0  0
  4 10  1  0  0  0  0
  5  6  1  0  0  0  0
  5 12  1  0  0  0  0
  6  7  2  0  0  0  0
  6 13  1  0  0  0  0
  7  8  1  0  0  0  0
  7  9  1  0  0  0  0
  9 10  2  0  0  0  0
  9 14  1  0  0  0  0
 10 15  1  0  0  0  0
M  END
$$$$

 OpenBabel12201709243D

 17 17  0  0  0  0  0  0  0  0999 V2000
    1.0566    0.0847    0.2021 N   0  0  0  0  0  0  0  0  0  0  0  0
    2.4246    0.0950   -0.0907 C   0  0  0  0  0  0  0  0  0  0  0  0
    3.1243    1.3034   -0.1314 C   0  0  0  0  0  0  0  0  0  0  0  0
    4.5118    1.3219   -0.2984 C   0  0  0  0  0  0  0  0  0  0  0  0
    5.2156    0.1179   -0.3856 C   0  0  0  0  0  0  0  0  0  0  0  0
    4.5379   -1.0991   -0.2681 C   0  0  0  0  0  0  0  0  0  0  0  0
    3.1484   -1.1012   -0.1072 C   0  0  0  0  0  0  0  0  0  0  0  0
    6.6560    0.1459   -0.5529 N   0  0  0  0  0  0  0  0  0  0  0  0
    7.2854    1.0872   -0.1144 O   0  0  0  0  0  0  0  0  0  0  0  0
    7.3264   -0.8539   -1.2411 O   0  0  0  0  0  0  0  0  0  0  0  0
    0.5653    0.9248   -0.0853 H   0  0  0  0  0  0  0  0  0  0  0  0
    0.5749   -0.7607   -0.0884 H   0  0  0  0  0  0  0  0  0  0  0  0
    2.5946    2.2475   -0.0266 H   0  0  0  0  0  0  0  0  0  0  0  0
    5.0368    2.2744   -0.3404 H   0  0  0  0  0  0  0  0  0  0  0  0
    5.0676   -2.0487   -0.2579 H   0  0  0  0  0  0  0  0  0  0  0  0
    2.6322   -2.0498    0.0198 H   0  0  0  0  0  0  0  0  0  0  0  0
    6.6032   -1.3429   -1.6540 H   0  0  0  0  0  0  0  0  0  0  0  0
  1  2  1  0  0  0  0
  1 11  1  0  0  0  0
  1 12  1  0  0  0  0
  2  3  2  0  0  0  0
  2  7  1  0  0  0  0
  3  4  1  0  0  0  0
  3 13  1  0  0  0  0
  4  5  2  0  0  0  0
  4 14  1  0  0  0  0
  5  6  1  0  0  0  0
  5  8  1  0  0  0  0
  6  7  2  0  0  0  0
  6 15  1  0  0  0  0
  7 16  1  0  0  0  0
  8  9  2  0  0  0  0
  8 10  1  0  0  0  0
 10 17  1  0  0  0  0
M  END
$$$$

 OpenBabel12201709243D

 20 20  0  0  1  0  0  0  0  0999 V2000
    2.5692   -1.1878    0.6537 C   0  0  0  0  0  0  0  0  0  0  0  0
    2.1945   -0.1114   -0.0556 C   0  0  0  0  0  0  0  0  0  0  0  0
    3.0778    0.5463   -1.0959 C   0  0  3  0  0  0  0  0  0  0  0  0
    3.3897    2.0072   -0.7167 C   0  0  0  0  0  0  0  0  0  0  0  0
    2.6756    3.1221   -1.4823 C   0  0  0  0  0  0  0  0  0  0  0  0
    2.0816    2.7470   -2.7965 C   0  0  0  0  0  0  0  0  0  0  0  0
    2.0158    1.4966   -3.2555 C   0  0  0  0  0  0  0  0  0  0  0  0
    2.5299    0.3035   -2.5176 C   0  0  0  0  0  0  0  0  0  0  0  0
    1.9065   -1.6354    1.3873 H   0  0  0  0  0  0  0  0  0  0  0  0
    3.5418   -1.6511    0.5163 H   0  0  0  0  0  0  0  0  0  0  0  0
    1.2092    0.3168    0.1086 H   0  0  0  0  0  0  0  0  0  0  0  0
    4.0430    0.0192   -1.0538 H   0  0  0  0  0  0  0  0  0  0  0  0
    4.4694    2.1584   -0.8493 H   0  0  0  0  0  0  0  0  0  0  0  0
    3.2217    2.1719    0.3575 H   0  0  0  0  0  0  0  0  0  0  0  0
    3.3958    3.9328   -1.6552 H   0  0  0  0  0  0  0  0  0  0  0  0
    1.8822    3.5490   -0.8592 H   0  0  0  0  0  0  0  0  0  0  0  0
    1.6829    3.5549   -3.4062 H   0  0  0  0  0  0  0  0  0  0  0  0
    1.5670    1.3092   -4.2301 H   0  0  0  0  0  0  0  0  0  0  0  0
    3.3330   -0.1290   -3.1287 H   0  0  0  0  0  0  0  0  0  0  0  0
    1.7327   -0.4531   -2.4976 H   0  0  0  0  0  0  0  0  0  0  0  0
  1  2  2  0  0  0  0
  1  9  1  0  0  0  0
  1 10  1  0  0  0  0
  2  3  1  0  0  0  0
  2 11  1  0  0  0  0
  3  4  1  0  0  0  0
  3  8  1  0  0  0  0
  3 12  1  0  0  0  0
  4  5  1  0  0  0  0
  4 13  1  0  0  0  0
  4 14  1  0  0  0  0
  5  6  1  0  0  0  0
  5 15  1  0  0  0  0
  5 16  1  0  0  0  0
  6  7  2  0  0  0  0
  6 17  1  0  0  0  0
  7  8  1  0  0  0  0
  7 18  1  0  0  0  0
  8 19  1  0  0  0  0
  8 20  1  0  0  0  0
M  END
$$$$

 OpenBabel12201709243D

 18 18  0  0  0  0  0  0  0  0999 V2000
    1.1244    0.2716   -0.0468 C   0  0  0  0  0  0  0  0  0  0  0  0
    2.6137   -0.0314    0.0244 C   0  0  0  0  0  0  0  0  0  0  0  0
    2.9945   -1.1318   -0.9320 C   0  0  0  0  0  0  0  0  0  0  0  0
    3.4000   -0.8271   -2.2385 C   0  0  0  0  0  0  0  0  0  0  0  0
    3.7056   -1.8483   -3.1385 C   0  0  0  0  0  0  0  0  0  0  0  0
    3.6052   -3.1810   -2.7438 C   0  0  0  0  0  0  0  0  0  0  0  0
    3.2050   -3.4946   -1.4465 C   0  0  0  0  0  0  0  0  0  0  0  0
    2.9002   -2.4747   -0.5438 C   0  0  0  0  0  0  0  0  0  0  0  0
    0.8681    1.0823    0.6420 H   0  0  0  0  0  0  0  0  0  0  0  0
    0.5280   -0.6061    0.2246 H   0  0  0  0  0  0  0  0  0  0  0  0
    0.8295    0.5769   -1.0567 H   0  0  0  0  0  0  0  0  0  0  0  0
    2.8880   -0.3179    1.0470 H   0  0  0  0  0  0  0  0  0  0  0  0
    3.1885    0.8745   -0.2030 H   0  0  0  0  0  0  0  0  0  0  0  0
    3.4723    0.2076   -2.5635 H   0  0  0  0  0  0  0  0  0  0  0  0
    4.0138   -1.6036   -4.1515 H   0  0  0  0  0  0  0  0  0  0  0  0
    3.8340   -3.9753   -3.4491 H   0  0  0  0  0  0  0  0  0  0  0  0
    3.1232   -4.5336   -1.1390 H   0  0  0  0  0  0  0  0  0  0  0  0
    2.5806   -2.7334    0.4629 H   0  0  0  0  0  0  0  0  0  0  0  0
  1  2  1  0  0  0  0
  1  9  1  0  0  0  0
  1 10  1  0  0  0  0
  1 11  1  0  0  0  0
  2  3  1  0  0  0  0
  2 12  1  0  0  0  0
  2 13  1  0  0  0  0
  3  4  2  0  0  0  0
  3  8  1  0  0  0  0
  4  5  1  0  0  0  0
  4 14  1  0  0  0  0
  5  6  2  0  0  0  0
  5 15  1  0  0  0  0
  6  7  1  0  0  0  0
  6 16  1  0  0  0  0
  7  8  2  0  0  0  0
  7 17  1  0  0  0  0
  8 18  1  0  0  0  0
M  END
$$$$

 OpenBabel12201709243D

 16 16  0  0  0  0  0  0  0  0999 V2000
    1.0896    0.1658   -0.0089 C   0  0  0  0  0  0  0  0  0  0  0  0
    2.4028   -0.0911   -0.0437 C   0  0  0  0  0  0  0  0  0  0  0  0
    3.0629   -0.4996   -1.2813 C   0  0  0  0  0  0  0  0  0  0  0  0
    3.6110    0.4631   -2.1353 C   0  0  0  0  0  0  0  0  0  0  0  0
    4.2134    0.0766   -3.3340 C   0  0  0  0  0  0  0  0  0  0  0  0
    4.2691   -1.2723   -3.6838 C   0  0  0  0  0  0  0  0  0  0  0  0
    3.7264   -2.2359   -2.8348 C   0  0  0  0  0  0  0  0  0  0  0  0
    3.1231   -1.8510   -1.6357 C   0  0  0  0  0  0  0  0  0  0  0  0
    0.6084    0.4707    0.9143 H   0  0  0  0  0  0  0  0  0  0  0  0
    0.4678    0.0800   -0.8954 H   0  0  0  0  0  0  0  0  0  0  0  0
    3.0242   -0.0032    0.8422 H   0  0  0  0  0  0  0  0  0  0  0  0
    3.5656    1.5176   -1.8743 H   0  0  0  0  0  0  0  0  0  0  0  0
    4.6342    0.8285   -3.9963 H   0  0  0  0  0  0  0  0  0  0  0  0
    4.7331   -1.5719   -4.6199 H   0  0  0  0  0  0  0  0  0  0  0  0
    3.7679   -3.2871   -3.1075 H   0  0  0  0  0  0  0  0  0  0  0  0
    2.6964   -2.6090   -0.9833 H   0  0  0  0  0  0  0  0  0  0  0  0
  1  2  2  0  0  0  0
  1  9  1  0  0  0  0
  1 10  1  0  0  0  0
  2  3  1  0  0  0  0
  2 11  1  0  0  0  0
  3  4  2  0  0  0  0
  3  8  1  0  0  0  0
  4  5  1  0  0  0  0
  4 12  1  0  0  0  0
  5  6  2  0  0  0  0
  5 13  1  0  0  0  0
  6  7  1  0  0  0  0
  6 14  1  0  0  0  0
  7  8  2  0  0  0  0
  7 15  1  0  0  0  0
  8 16  1  0  0  0  0
M  END
$$$$

 OpenBabel12201709243D

 15 15  0  0  0  0  0  0  0  0999 V2000
    3.9845    0.0459   -1.3629 Cl  0  0  0  0  0  0  0  0  0  0  0  0
    2.8197    0.0864   -0.0246 C   0  0  0  0  0  0  0  0  0  0  0  0
    3.2851   -0.7837    1.1088 C   0  0  0  0  0  0  0  0  0  0  0  0
    4.0983   -0.2583    2.1235 C   0  0  0  0  0  0  0  0  0  0  0  0
    4.5401   -1.0705    3.1693 C   0  0  0  0  0  0  0  0  0  0  0  0
    4.1799   -2.4161    3.2083 C   0  0  0  0  0  0  0  0  0  0  0  0
    3.3813   -2.9523    2.2002 C   0  0  0  0  0  0  0  0  0  0  0  0
    2.9382   -2.1420    1.1535 C   0  0  0  0  0  0  0  0  0  0  0  0
    1.8485   -0.2489   -0.4029 H   0  0  0  0  0  0  0  0  0  0  0  0
    2.7049    1.1257    0.3004 H   0  0  0  0  0  0  0  0  0  0  0  0
    4.3982    0.7874    2.1022 H   0  0  0  0  0  0  0  0  0  0  0  0
    5.1708   -0.6545    3.9508 H   0  0  0  0  0  0  0  0  0  0  0  0
    4.5278   -3.0487    4.0207 H   0  0  0  0  0  0  0  0  0  0  0  0
    3.1081   -4.0041    2.2258 H   0  0  0  0  0  0  0  0  0  0  0  0
    2.3248   -2.5793    0.3684 H   0  0  0  0  0  0  0  0  0  0  0  0
  1  2  1  0  0  0  0
  2  3  1  0  0  0  0
  2  9  1  0  0  0  0
  2 10  1  0  0  0  0
  3  4  2  0  0  0  0
  3  8  1  0  0  0  0
  4  5  1  0  0  0  0
  4 11  1  0  0  0  0
  5  6  2  0  0  0  0
  5 12  1  0  0  0  0
  6  7  1  0  0  0  0
  6 13  1  0  0  0  0
  7  8  2  0  0  0  0
  7 14  1  0  0  0  0
  8 15  1  0  0  0  0
M  END
$$$$

 OpenBabel12201709243D

 16 16  0  0  0  0  0  0  0  0999 V2000
    3.3152    1.0807   -0.1505 O   0  0  0  0  0  0  0  0  0  0  0  0
    2.3566    0.0707    0.1378 C   0  0  0  0  0  0  0  0  0  0  0  0
    2.8533   -0.8550    1.2169 C   0  0  0  0  0  0  0  0  0  0  0  0
    3.6821   -0.3946    2.2500 C   0  0  0  0  0  0  0  0  0  0  0  0
    4.1097   -1.2582    3.2601 C   0  0  0  0  0  0  0  0  0  0  0  0
    3.7032   -2.5905    3.2568 C   0  0  0  0  0  0  0  0  0  0  0  0
    2.8646   -3.0584    2.2473 C   0  0  0  0  0  0  0  0  0  0  0  0
    2.4369   -2.1947    1.2365 C   0  0  0  0  0  0  0  0  0  0  0  0
    2.9502    1.6109   -0.8779 H   0  0  0  0  0  0  0  0  0  0  0  0
    2.1714   -0.4859   -0.7870 H   0  0  0  0  0  0  0  0  0  0  0  0
    1.4270    0.5488    0.4630 H   0  0  0  0  0  0  0  0  0  0  0  0
    4.0068    0.6442    2.2641 H   0  0  0  0  0  0  0  0  0  0  0  0
    4.7615   -0.8888    4.0471 H   0  0  0  0  0  0  0  0  0  0  0  0
    4.0394   -3.2632    4.0412 H   0  0  0  0  0  0  0  0  0  0  0  0
    2.5431   -4.0964    2.2468 H   0  0  0  0  0  0  0  0  0  0  0  0
    1.7787   -2.5769    0.4596 H   0  0  0  0  0  0  0  0  0  0  0  0
  1  2  1  0  0  0  0
  1  9  1  0  0  0  0
  2  3  1  0  0  0  0
  2 10  1  0  0  0  0
  2 11  1  0  0  0  0
  3  4  2  0  0  0  0
  3  8  1  0  0  0  0
  4  5  1  0  0  0  0
  4 12  1  0  0  0  0
  5  6  2  0  0  0  0
  5 13  1  0  0  0  0
  6  7  1  0  0  0  0
  6 14  1  0  0  0  0
  7  8  2  0  0  0  0
  7 15  1  0  0  0  0
  8 16  1  0  0  0  0
M  END
$$$$

 OpenBabel12201709243D

 14 14  0  0  0  0  0  0  0  0999 V2000
    2.4462    1.2631    0.0184 O   0  0  0  0  0  0  0  0  0  0  0  0
    2.1638    0.0739    0.0952 C   0  0  0  0  0  0  0  0  0  0  0  0
    2.8960   -0.8551    0.9788 C   0  0  0  0  0  0  0  0  0  0  0  0
    3.9492   -0.3890    1.7706 C   0  0  0  0  0  0  0  0  0  0  0  0
    4.6355   -1.2760    2.6004 C   0  0  0  0  0  0  0  0  0  0  0  0
    4.2692   -2.6222    2.6371 C   0  0  0  0  0  0  0  0  0  0  0  0
    3.2164   -3.0855    1.8460 C   0  0  0  0  0  0  0  0  0  0  0  0
    2.5257   -2.2027    1.0139 C   0  0  0  0  0  0  0  0  0  0  0  0
    1.3418   -0.3585   -0.4996 H   0  0  0  0  0  0  0  0  0  0  0  0
    4.2357    0.6603    1.7424 H   0  0  0  0  0  0  0  0  0  0  0  0
    5.4556   -0.9173    3.2176 H   0  0  0  0  0  0  0  0  0  0  0  0
    4.8064   -3.3119    3.2843 H   0  0  0  0  0  0  0  0  0  0  0  0
    2.9358   -4.1356    1.8793 H   0  0  0  0  0  0  0  0  0  0  0  0
    1.7082   -2.5755    0.4028 H   0  0  0  0  0  0  0  0  0  0  0  0
  1  2  2  0  0  0  0
  2  3  1  0  0  0  0
  2  9  1  0  0  0  0
  3  4  2  0  0  0  0
  3  8  1  0  0  0  0
  4  5  1  0  0  0  0
  4 10  1  0  0  0  0
  5  6  2  0  0  0  0
  5 11  1  0  0  0  0
  6  7  1  0  0  0  0
  6 12  1  0  0  0  0
  7  8  2  0  0  0  0
  7 13  1  0  0  0  0
  8 14  1  0  0  0  0
M  END
$$$$

 OpenBabel12201709243D

 16 16  0  0  0  0  0  0  0  0999 V2000
    1.5848    0.8629   -0.7680 N   0  0  0  0  0  0  0  0  0  0  0  0
    2.4539    0.0971    0.0303 N   0  0  0  0  0  0  0  0  0  0  0  0
    3.0755    0.7033    1.1547 C   0  0  0  0  0  0  0  0  0  0  0  0
    2.9659    2.0665    1.4554 C   0  0  0  0  0  0  0  0  0  0  0  0
    3.6567    2.6216    2.5371 C   0  0  0  0  0  0  0  0  0  0  0  0
    4.4890    1.8243    3.3187 C   0  0  0  0  0  0  0  0  0  0  0  0
    4.6316    0.4724    3.0190 C   0  0  0  0  0  0  0  0  0  0  0  0
    3.9337   -0.0810    1.9414 C   0  0  0  0  0  0  0  0  0  0  0  0
    1.2879    0.3163   -1.5803 H   0  0  0  0  0  0  0  0  0  0  0  0
    2.1077    1.6459   -1.1714 H   0  0  0  0  0  0  0  0  0  0  0  0
    2.1075   -0.8302    0.2970 H   0  0  0  0  0  0  0  0  0  0  0  0
    2.3212    2.7120    0.8668 H   0  0  0  0  0  0  0  0  0  0  0  0
    3.5439    3.6784    2.7642 H   0  0  0  0  0  0  0  0  0  0  0  0
    5.0303    2.2581    4.1550 H   0  0  0  0  0  0  0  0  0  0  0  0
    5.2916   -0.1512    3.6157 H   0  0  0  0  0  0  0  0  0  0  0  0
    4.0760   -1.1331    1.7083 H   0  0  0  0  0  0  0  0  0  0  0  0
  1  2  1  0  0  0  0
  1  9  1  0  0  0  0
  1 10  1  0  0  0  0
  2  3  1  0  0  0  0
  2 11  1  0  0  0  0
  3  4  2  0  0  0  0
  3  8  1  0  0  0  0
  4  5  1  0  0  0  0
  4 12  1  0  0  0  0
  5  6  2  0  0  0  0
  5 13  1  0  0  0  0
  6  7  1  0  0  0  0
  6 14  1  0  0  0  0
  7  8  2  0  0  0  0
  7 15  1  0  0  0  0
  8 16  1  0  0  0  0
M  END
$$$$

 OpenBabel12201709243D

 18 18  0  0  0  0  0  0  0  0999 V2000
    2.1941    0.9116   -0.3215 O   0  0  0  0  0  0  0  0  0  0  0  0
    2.6161   -0.1837    0.0675 N   0  0  0  0  0  0  0  0  0  0  0  0
    2.6342   -0.2264    1.3821 N   0  0  0  0  0  0  0  0  0  0  0  0
    2.5748   -1.5918    1.9255 C   0  0  0  0  0  0  0  0  0  0  0  0
    3.9092   -2.3408    1.9017 C   0  0  0  0  0  0  0  0  0  0  0  0
    4.9969   -1.5347    2.6013 C   0  0  0  0  0  0  0  0  0  0  0  0
    5.0826   -0.1393    1.9951 C   0  0  0  0  0  0  0  0  0  0  0  0
    3.7155    0.5540    2.0144 C   0  0  0  0  0  0  0  0  0  0  0  0
    1.8126   -2.1860    1.4004 H   0  0  0  0  0  0  0  0  0  0  0  0
    2.2240   -1.5305    2.9642 H   0  0  0  0  0  0  0  0  0  0  0  0
    4.2088   -2.5433    0.8663 H   0  0  0  0  0  0  0  0  0  0  0  0
    3.7965   -3.3123    2.3960 H   0  0  0  0  0  0  0  0  0  0  0  0
    5.9621   -2.0459    2.5165 H   0  0  0  0  0  0  0  0  0  0  0  0
    4.7660   -1.4577    3.6710 H   0  0  0  0  0  0  0  0  0  0  0  0
    5.4540   -0.2085    0.9649 H   0  0  0  0  0  0  0  0  0  0  0  0
    5.8077    0.4600    2.5562 H   0  0  0  0  0  0  0  0  0  0  0  0
    3.8083    1.5492    1.5588 H   0  0  0  0  0  0  0  0  0  0  0  0
    3.4317    0.7422    3.0584 H   0  0  0  0  0  0  0  0  0  0  0  0
  1  2  2  0  0  0  0
  2  3  1  0  0  0  0
  3  4  1  0  0  0  0
  3  8  1  0  0  0  0
  4  5  1  0  0  0  0
  4  9  1  0  0  0  0
  4 10  1  0  0  0  0
  5  6  1  0  0  0  0
  5 11  1  0  0  0  0
  5 12  1  0  0  0  0
  6  7  1  0  0  0  0
  6 13  1  0  0  0  0
  6 14  1  0  0  0  0
  7  8  1  0  0  0  0
  7 15  1  0  0  0  0
  7 16  1  0  0  0  0
  8 17  1  0  0  0  0
  8 18  1  0  0  0  0
M  END
$$$$

 OpenBabel12201709243D

 22 24  0  0  1  0  0  0  0  0999 V2000
   -0.7302    0.9742    1.1536 C   0  0  0  0  0  0  0  0  0  0  0  0
    0.7003    0.7158    1.0657 N   0  0  3  0  0  0  0  0  0  0  0  0
    1.1862    1.1630   -0.2322 C   0  0  0  0  0  0  0  0  0  0  0  0
    0.4940    0.4551   -1.3002 N   0  0  3  0  0  0  0  0  0  0  0  0
   -0.9351    0.7153   -1.1958 C   0  0  0  0  0  0  0  0  0  0  0  0
   -1.4359    0.2650    0.0953 N   0  0  3  0  0  0  0  0  0  0  0  0
   -1.1868   -1.1633    0.2310 C   0  0  0  0  0  0  0  0  0  0  0  0
    0.2405   -1.4367    0.1367 N   0  0  3  0  0  0  0  0  0  0  0  0
    0.9345   -0.7157    1.1946 C   0  0  0  0  0  0  0  0  0  0  0  0
    0.7296   -0.9746   -1.1548 C   0  0  0  0  0  0  0  0  0  0  0  0
   -0.9307    2.0527    1.0939 H   0  0  0  0  0  0  0  0  0  0  0  0
   -1.1150    0.6771    2.1387 H   0  0  0  0  0  0  0  0  0  0  0  0
    2.2714    1.0106   -0.3101 H   0  0  0  0  0  0  0  0  0  0  0  0
    1.0524    2.2480   -0.3401 H   0  0  0  0  0  0  0  0  0  0  0  0
   -1.4770    0.2196   -2.0128 H   0  0  0  0  0  0  0  0  0  0  0  0
   -1.1427    1.7848   -1.3373 H   0  0  0  0  0  0  0  0  0  0  0  0
   -1.7375   -1.7245   -0.5363 H   0  0  0  0  0  0  0  0  0  0  0  0
   -1.5875   -1.5349    1.1841 H   0  0  0  0  0  0  0  0  0  0  0  0
    2.0109   -0.9335    1.1665 H   0  0  0  0  0  0  0  0  0  0  0  0
    0.6076   -1.0717    2.1812 H   0  0  0  0  0  0  0  0  0  0  0  0
    0.2456   -1.5292   -1.9703 H   0  0  0  0  0  0  0  0  0  0  0  0
    1.7989   -1.2014   -1.2647 H   0  0  0  0  0  0  0  0  0  0  0  0
  1  2  1  0  0  0  0
  1  6  1  0  0  0  0
  1 11  1  0  0  0  0
  1 12  1  0  0  0  0
  2  3  1  0  0  0  0
  2  9  1  0  0  0  0
  3  4  1  0  0  0  0
  3 13  1  0  0  0  0
  3 14  1  0  0  0  0
  4  5  1  0  0  0  0
  4 10  1  0  0  0  0
  5  6  1  0  0  0  0
  5 15  1  0  0  0  0
  5 16  1  0  0  0  0
  6  7  1  0  0  0  0
  7  8  1  0  0  0  0
  7 17  1  0  0  0  0
  7 18  1  0  0  0  0
  8  9  1  0  0  0  0
  8 10  1  0  0  0  0
  9 19  1  0  0  0  0
  9 20  1  0  0  0  0
 10 21  1  0  0  0  0
 10 22  1  0  0  0  0
M  END
$$$$

 OpenBabel12201709243D

 11 10  0  0  0  0  0  0  0  0999 V2000
    1.0688   -0.0062    0.1214 N   0  0  0  0  0  0  0  0  0  0  0  0
    2.4928   -0.0674    0.2769 N   0  0  0  0  0  0  0  0  0  0  0  0
    3.0773   -0.7865   -0.8674 O   0  0  0  0  0  0  0  0  0  0  0  0
    4.7278   -0.8026   -0.8881 S   0  0  0  0  0  0  0  0  0  0  0  0
    5.1692   -1.3452    0.3797 O   0  0  0  0  0  0  0  0  0  0  0  0
    5.1748   -1.3574   -2.1465 O   0  0  0  0  0  0  0  0  0  0  0  0
    5.1181    0.7637   -0.8640 O   0  0  0  0  0  0  0  0  0  0  0  0
    0.6256    0.5661    0.8435 H   0  0  0  0  0  0  0  0  0  0  0  0
    0.6339   -0.9304    0.1743 H   0  0  0  0  0  0  0  0  0  0  0  0
    2.7652   -0.6868    1.0572 H   0  0  0  0  0  0  0  0  0  0  0  0
    4.6579    1.1741   -0.1026 H   0  0  0  0  0  0  0  0  0  0  0  0
  1  2  1  0  0  0  0
  1  8  1  0  0  0  0
  1  9  1  0  0  0  0
  2  3  1  0  0  0  0
  2 10  1  0  0  0  0
  3  4  1  0  0  0  0
  4  5  2  0  0  0  0
  4  6  2  0  0  0  0
  4  7  1  0  0  0  0
  7 11  1  0  0  0  0
M  END
$$$$

 OpenBabel12201709243D

  6  6  0  0  0  0  0  0  0  0999 V2000
    0.8423    0.0651    0.2163 O   0  0  0  0  0  0  0  0  0  0  0  0
    2.3428    0.0645   -0.1109 S   0  0  0  0  0  0  0  0  0  0  0  0
    2.5994    0.0647   -1.6250 O   0  0  0  0  0  0  0  0  0  0  0  0
    3.1571    1.3532    0.6660 O   0  0  0  0  0  0  0  0  0  0  0  0
    4.2002    0.0635    1.6617 Mn  0  0  0  0  0  0  0  0  0  0  0  0
    3.1561   -1.2251    0.6656 O   0  0  0  0  0  0  0  0  0  0  0  0
  1  2  2  0  0  0  0
  2  3  2  0  0  0  0
  2  4  1  0  0  0  0
  2  6  1  0  0  0  0
  4  5  1  0  0  0  0
  5  6  1  0  0  0  0
M  END
$$$$

 OpenBabel12201709243D

  7  6  0  0  0  0  0  0  0  0999 V2000
    1.0590   -0.0185   -0.1132 O   0  0  0  0  0  0  0  0  0  0  0  0
    2.5308   -0.0175   -0.0859 B   0  0  0  0  0  0  0  0  0  0  0  0
    3.2826    0.0255    1.1761 O   0  0  0  0  0  0  0  0  0  0  0  0
    3.2762   -0.0605   -1.3447 O   0  0  0  0  0  0  0  0  0  0  0  0
    0.7403    0.0134    0.8231 H   0  0  0  0  0  0  0  0  0  0  0  0
    2.6267    0.0507    1.9167 H   0  0  0  0  0  0  0  0  0  0  0  0
    2.5954   -0.0850   -2.0640 H   0  0  0  0  0  0  0  0  0  0  0  0
  1  2  1  0  0  0  0
  1  5  1  0  0  0  0
  2  3  1  0  0  0  0
  2  4  1  0  0  0  0
  3  6  1  0  0  0  0
  4  7  1  0  0  0  0
M  END
$$$$

 OpenBabel12201709243D

  1  0  0  0  0  0  0  0  0  0999 V2000
    0.9764    0.0357    0.0904 Ca  0  0  0  0  0 15  0  0  0  0  0  0
M  END
$$$$

 OpenBabel12201709243D

 36 40  0  0  1  0  0  0  0  0999 V2000
    2.0390    1.3446    1.1050 C   0  0  0  0  0  0  0  0  0  0  0  0
    2.2265    0.0981    0.4480 O   0  0  0  0  0  0  0  0  0  0  0  0
    2.8992   -0.8856    1.1260 C   0  0  0  0  0  0  0  0  0  0  0  0
    3.6716   -0.6257    2.2650 C   0  0  0  0  0  0  0  0  0  0  0  0
    4.3464   -1.6686    2.8638 C   0  0  0  0  0  0  0  0  0  0  0  0
    5.1798   -1.4976    3.9354 O   0  0  0  0  0  0  0  0  0  0  0  0
    5.8354   -2.7769    4.0967 C   0  0  3  0  0  0  0  0  0  0  0  0
    5.7529   -3.2344    5.4671 O   0  0  0  0  0  0  0  0  0  0  0  0
    4.9712   -4.3682    5.4010 C   0  0  0  0  0  0  0  0  0  0  0  0
    4.5768   -4.7506    4.1914 C   0  0  0  0  0  0  0  0  0  0  0  0
    5.1651   -3.8361    3.1861 C   0  0  3  0  0  0  0  0  0  0  0  0
    4.2531   -2.9704    2.4023 C   0  0  0  0  0  0  0  0  0  0  0  0
    3.4708   -3.2636    1.2941 C   0  0  0  0  0  0  0  0  0  0  0  0
    3.4240   -4.5726    0.8922 O   0  0  0  0  0  0  0  0  0  0  0  0
    2.5421   -4.9136   -0.1051 C   0  0  0  0  0  0  0  0  0  0  0  0
    2.3807   -6.2830   -0.3325 C   0  0  0  0  0  0  0  0  0  0  0  0
    1.5155   -6.7333   -1.3301 C   0  0  0  0  0  0  0  0  0  0  0  0
    0.7994   -5.8139   -2.0946 C   0  0  0  0  0  0  0  0  0  0  0  0
    0.9606   -4.4441   -1.8679 C   0  0  0  0  0  0  0  0  0  0  0  0
    0.2181   -3.5692   -2.6070 O   0  0  0  0  0  0  0  0  0  0  0  0
    1.8438   -3.9871   -0.8788 C   0  0  0  0  0  0  0  0  0  0  0  0
    2.1162   -2.5539   -0.6318 C   0  0  0  0  0  0  0  0  0  0  0  0
    1.8489   -1.7044   -1.4704 O   0  0  0  0  0  0  0  0  0  0  0  0
    2.8218   -2.2106    0.6294 C   0  0  0  0  0  0  0  0  0  0  0  0
    1.4133    1.9732    0.4648 H   0  0  0  0  0  0  0  0  0  0  0  0
    2.9902    1.8675    1.2486 H   0  0  0  0  0  0  0  0  0  0  0  0
    1.5155    1.2082    2.0573 H   0  0  0  0  0  0  0  0  0  0  0  0
    3.7973    0.3713    2.6720 H   0  0  0  0  0  0  0  0  0  0  0  0
    6.8941   -2.6424    3.8439 H   0  0  0  0  0  0  0  0  0  0  0  0
    4.7788   -4.8328    6.3543 H   0  0  0  0  0  0  0  0  0  0  0  0
    3.9893   -5.6296    3.9756 H   0  0  0  0  0  0  0  0  0  0  0  0
    5.9030   -4.3384    2.5535 H   0  0  0  0  0  0  0  0  0  0  0  0
    2.9336   -7.0042    0.2669 H   0  0  0  0  0  0  0  0  0  0  0  0
    1.3955   -7.7995   -1.5078 H   0  0  0  0  0  0  0  0  0  0  0  0
    0.1155   -6.1786   -2.8563 H   0  0  0  0  0  0  0  0  0  0  0  0
   -0.1920   -4.0239   -3.3587 H   0  0  0  0  0  0  0  0  0  0  0  0
  1  2  1  0  0  0  0
  1 25  1  0  0  0  0
  1 26  1  0  0  0  0
  1 27  1  0  0  0  0
  2  3  1  0  0  0  0
  3  4  2  0  0  0  0
  3 24  1  0  0  0  0
  4  5  1  0  0  0  0
  4 28  1  0  0  0  0
  5  6  1  0  0  0  0
  5 12  2  0  0  0  0
  6  7  1  0  0  0  0
  7  8  1  0  0  0  0
  7 11  1  0  0  0  0
  7 29  1  0  0  0  0
  8  9  1  0  0  0  0
  9 10  2  0  0  0  0
  9 30  1  0  0  0  0
 10 11  1  0  0  0  0
 10 31  1  0  0  0  0
 11 12  1  0  0  0  0
 11 32  1  0  0  0  0
 12 13  1  0  0  0  0
 13 14  1  0  0  0  0
 13 24  2  0  0  0  0
 14 15  1  0  0  0  0
 15 16  2  0  0  0  0
 15 21  1  0  0  0  0
 16 17  1  0  0  0  0
 16 33  1  0  0  0  0
 17 18  2  0  0  0  0
 17 34  1  0  0  0  0
 18 19  1  0  0  0  0
 18 35  1  0  0  0  0
 19 20  1  0  0  0  0
 19 21  2  0  0  0  0
 20 36  1  0  0  0  0
 21 22  1  0  0  0  0
 22 23  2  0  0  0  0
 22 24  1  0  0  0  0
M  END
$$$$

 OpenBabel12201709243D

 21 22  0  0  0  0  0  0  0  0999 V2000
    1.1542    0.6148    0.5263 Cl  0  0  0  0  0  0  0  0  0  0  0  0
    2.8330    0.3467    0.1944 C   0  0  0  0  0  0  0  0  0  0  0  0
    3.6741    1.4629    0.1241 C   0  0  0  0  0  0  0  0  0  0  0  0
    5.0360    1.2938   -0.1134 C   0  0  0  0  0  0  0  0  0  0  0  0
    5.5526    0.0125   -0.2730 C   0  0  0  0  0  0  0  0  0  0  0  0
    4.7087   -1.0999   -0.2012 C   0  0  0  0  0  0  0  0  0  0  0  0
    3.3312   -0.9609    0.0220 C   0  0  0  0  0  0  0  0  0  0  0  0
    2.4748   -2.0704    0.1370 N   0  0  0  0  0  0  0  0  0  0  0  0
    2.7126   -3.4017    0.4613 C   0  0  0  0  0  0  0  0  0  0  0  0
    3.9210   -3.7991    0.8368 N   0  0  0  0  0  0  0  0  0  0  0  0
    4.0197   -5.0785    1.1636 C   0  0  0  0  0  0  0  0  0  0  0  0
    5.5651   -5.5968    1.6724 Cl  0  0  0  0  0  0  0  0  0  0  0  0
    3.0696   -5.9902    1.1479 N   0  0  0  0  0  0  0  0  0  0  0  0
    1.9232   -5.4713    0.7572 C   0  0  0  0  0  0  0  0  0  0  0  0
    0.6003   -6.5506    0.6874 Cl  0  0  0  0  0  0  0  0  0  0  0  0
    1.6656   -4.2128    0.4129 N   0  0  0  0  0  0  0  0  0  0  0  0
    3.2746    2.4640    0.2624 H   0  0  0  0  0  0  0  0  0  0  0  0
    5.6945    2.1569   -0.1687 H   0  0  0  0  0  0  0  0  0  0  0  0
    6.6157   -0.1307   -0.4528 H   0  0  0  0  0  0  0  0  0  0  0  0
    5.1536   -2.0807   -0.3460 H   0  0  0  0  0  0  0  0  0  0  0  0
    1.4856   -1.8752    0.0425 H   0  0  0  0  0  0  0  0  0  0  0  0
  1  2  1  0  0  0  0
  2  3  2  0  0  0  0
  2  7  1  0  0  0  0
  3  4  1  0  0  0  0
  3 17  1  0  0  0  0
  4  5  2  0  0  0  0
  4 18  1  0  0  0  0
  5  6  1  0  0  0  0
  5 19  1  0  0  0  0
  6  7  2  0  0  0  0
  6 20  1  0  0  0  0
  7  8  1  0  0  0  0
  8  9  1  0  0  0  0
  8 21  1  0  0  0  0
  9 10  2  0  0  0  0
  9 16  1  0  0  0  0
 10 11  1  0  0  0  0
 11 12  1  0  0  0  0
 11 13  2  0  0  0  0
 13 14  1  0  0  0  0
 14 15  1  0  0  0  0
 14 16  2  0  0  0  0
M  END
$$$$

 OpenBabel12201709243D

 29 30  0  0  0  0  0  0  0  0999 V2000
    1.0055   -0.2690   -0.0688 N   0  0  0  0  0  0  0  0  0  0  0  0
    2.3884   -0.0654   -0.2343 C   0  0  0  0  0  0  0  0  0  0  0  0
    3.2014    0.0360    0.8984 C   0  0  0  0  0  0  0  0  0  0  0  0
    4.5950    0.0899    0.7827 C   0  0  0  0  0  0  0  0  0  0  0  0
    5.2127    0.0086   -0.4722 C   0  0  0  0  0  0  0  0  0  0  0  0
    6.7216   -0.0147   -0.5900 C   0  0  0  0  0  0  0  0  0  0  0  0
    7.2785   -1.4200   -0.5532 C   0  0  0  0  0  0  0  0  0  0  0  0
    7.5009   -2.1333   -1.7379 C   0  0  0  0  0  0  0  0  0  0  0  0
    7.9093   -3.4706   -1.6983 C   0  0  0  0  0  0  0  0  0  0  0  0
    8.0582   -4.1395   -0.4795 C   0  0  0  0  0  0  0  0  0  0  0  0
    8.5338   -5.4651   -0.4794 N   0  0  0  0  0  0  0  0  0  0  0  0
    7.9241   -3.3948    0.7047 C   0  0  0  0  0  0  0  0  0  0  0  0
    8.1922   -4.1322    2.2468 Cl  0  0  0  0  0  0  0  0  0  0  0  0
    7.5219   -2.0564    0.6714 C   0  0  0  0  0  0  0  0  0  0  0  0
    4.4063   -0.1334   -1.6095 C   0  0  0  0  0  0  0  0  0  0  0  0
    3.0149   -0.1887   -1.4876 C   0  0  0  0  0  0  0  0  0  0  0  0
    2.0719   -0.3912   -2.9259 Cl  0  0  0  0  0  0  0  0  0  0  0  0
    0.6105    0.1936    0.7430 H   0  0  0  0  0  0  0  0  0  0  0  0
    0.4782   -0.0939   -0.9226 H   0  0  0  0  0  0  0  0  0  0  0  0
    2.7540    0.0565    1.8890 H   0  0  0  0  0  0  0  0  0  0  0  0
    5.1947    0.1654    1.6875 H   0  0  0  0  0  0  0  0  0  0  0  0
    7.1690    0.5828    0.2147 H   0  0  0  0  0  0  0  0  0  0  0  0
    7.0268    0.4864   -1.5183 H   0  0  0  0  0  0  0  0  0  0  0  0
    7.3491   -1.6573   -2.7044 H   0  0  0  0  0  0  0  0  0  0  0  0
    8.0934   -3.9936   -2.6335 H   0  0  0  0  0  0  0  0  0  0  0  0
    8.2196   -6.0081   -1.2775 H   0  0  0  0  0  0  0  0  0  0  0  0
    8.3459   -5.9345    0.4052 H   0  0  0  0  0  0  0  0  0  0  0  0
    7.3817   -1.5155    1.6037 H   0  0  0  0  0  0  0  0  0  0  0  0
    4.8620   -0.2261   -2.5920 H   0  0  0  0  0  0  0  0  0  0  0  0
  1  2  1  0  0  0  0
  1 18  1  0  0  0  0
  1 19  1  0  0  0  0
  2  3  2  0  0  0  0
  2 16  1  0  0  0  0
  3  4  1  0  0  0  0
  3 20  1  0  0  0  0
  4  5  2  0  0  0  0
  4 21  1  0  0  0  0
  5  6  1  0  0  0  0
  5 15  1  0  0  0  0
  6  7  1  0  0  0  0
  6 22  1  0  0  0  0
  6 23  1  0  0  0  0
  7  8  2  0  0  0  0
  7 14  1  0  0  0  0
  8  9  1  0  0  0  0
  8 24  1  0  0  0  0
  9 10  2  0  0  0  0
  9 25  1  0  0  0  0
 10 11  1  0  0  0  0
 10 12  1  0  0  0  0
 11 26  1  0  0  0  0
 11 27  1  0  0  0  0
 12 13  1  0  0  0  0
 12 14  2  0  0  0  0
 14 28  1  0  0  0  0
 15 16  2  0  0  0  0
 15 29  1  0  0  0  0
 16 17  1  0  0  0  0
M  END
$$$$

 OpenBabel12201709243D

 41 42  0  0  0  0  0  0  0  0999 V2000
    0.3837    1.1348   -0.3613 C   0  0  0  0  0  0  0  0  0  0  0  0
    1.1874    0.8453    0.8297 N   0  0  0  0  0  0  0  0  0  0  0  0
    0.4560    0.3244    1.9808 C   0  0  0  0  0  0  0  0  0  0  0  0
    2.3055    1.6667    1.0372 C   0  0  0  0  0  0  0  0  0  0  0  0
    2.7176    2.0895    2.3109 C   0  0  0  0  0  0  0  0  0  0  0  0
    3.7628    3.0117    2.4865 C   0  0  0  0  0  0  0  0  0  0  0  0
    4.4491    3.5302    1.3854 C   0  0  0  0  0  0  0  0  0  0  0  0
    5.3909    4.6982    1.5366 C   0  0  0  0  0  0  0  0  0  0  0  0
    6.8367    4.4002    1.8568 C   0  0  0  0  0  0  0  0  0  0  0  0
    7.7837    4.2655    0.8401 C   0  0  0  0  0  0  0  0  0  0  0  0
    9.1567    4.2012    1.1415 C   0  0  0  0  0  0  0  0  0  0  0  0
    9.6466    4.2652    2.4577 C   0  0  0  0  0  0  0  0  0  0  0  0
    8.6641    4.3374    3.4613 C   0  0  0  0  0  0  0  0  0  0  0  0
    7.2901    4.3920    3.1748 C   0  0  0  0  0  0  0  0  0  0  0  0
   11.0087    4.3567    2.7598 N   0  0  0  0  0  0  0  0  0  0  0  0
   12.0018    4.3997    1.6862 C   0  0  0  0  0  0  0  0  0  0  0  0
   11.5126    3.7658    4.0003 C   0  0  0  0  0  0  0  0  0  0  0  0
    4.1391    3.0251    0.1216 C   0  0  0  0  0  0  0  0  0  0  0  0
    3.0851    2.1146   -0.0436 C   0  0  0  0  0  0  0  0  0  0  0  0
   -0.6043    0.6631   -0.3044 H   0  0  0  0  0  0  0  0  0  0  0  0
    0.8669    0.7347   -1.2586 H   0  0  0  0  0  0  0  0  0  0  0  0
    0.2167    2.2109   -0.4859 H   0  0  0  0  0  0  0  0  0  0  0  0
   -0.3858   -0.3010    1.6617 H   0  0  0  0  0  0  0  0  0  0  0  0
    0.0470    1.1290    2.6017 H   0  0  0  0  0  0  0  0  0  0  0  0
    1.1034   -0.3170    2.5885 H   0  0  0  0  0  0  0  0  0  0  0  0
    2.1975    1.7585    3.2046 H   0  0  0  0  0  0  0  0  0  0  0  0
    3.9932    3.3591    3.4910 H   0  0  0  0  0  0  0  0  0  0  0  0
    4.9932    5.3687    2.3069 H   0  0  0  0  0  0  0  0  0  0  0  0
    5.3582    5.3091    0.6234 H   0  0  0  0  0  0  0  0  0  0  0  0
    7.4758    4.2680   -0.2013 H   0  0  0  0  0  0  0  0  0  0  0  0
    9.8348    4.1304    0.2968 H   0  0  0  0  0  0  0  0  0  0  0  0
    8.9392    4.4274    4.5069 H   0  0  0  0  0  0  0  0  0  0  0  0
    6.5883    4.5004    3.9969 H   0  0  0  0  0  0  0  0  0  0  0  0
   11.6908    5.0118    0.8355 H   0  0  0  0  0  0  0  0  0  0  0  0
   12.2469    3.3902    1.3424 H   0  0  0  0  0  0  0  0  0  0  0  0
   12.9267    4.8627    2.0566 H   0  0  0  0  0  0  0  0  0  0  0  0
   10.8643    3.9120    4.8664 H   0  0  0  0  0  0  0  0  0  0  0  0
   12.4714    4.2272    4.2667 H   0  0  0  0  0  0  0  0  0  0  0  0
   11.6820    2.6918    3.8677 H   0  0  0  0  0  0  0  0  0  0  0  0
    4.6787    3.3700   -0.7569 H   0  0  0  0  0  0  0  0  0  0  0  0
    2.8729    1.7695   -1.0519 H   0  0  0  0  0  0  0  0  0  0  0  0
  1  2  1  0  0  0  0
  1 20  1  0  0  0  0
  1 21  1  0  0  0  0
  1 22  1  0  0  0  0
  2  3  1  0  0  0  0
  2  4  1  0  0  0  0
  3 23  1  0  0  0  0
  3 24  1  0  0  0  0
  3 25  1  0  0  0  0
  4  5  2  0  0  0  0
  4 19  1  0  0  0  0
  5  6  1  0  0  0  0
  5 26  1  0  0  0  0
  6  7  2  0  0  0  0
  6 27  1  0  0  0  0
  7  8  1  0  0  0  0
  7 18  1  0  0  0  0
  8  9  1  0  0  0  0
  8 28  1  0  0  0  0
  8 29  1  0  0  0  0
  9 10  2  0  0  0  0
  9 14  1  0  0  0  0
 10 11  1  0  0  0  0
 10 30  1  0  0  0  0
 11 12  2  0  0  0  0
 11 31  1  0  0  0  0
 12 13  1  0  0  0  0
 12 15  1  0  0  0  0
 13 14  2  0  0  0  0
 13 32  1  0  0  0  0
 14 33  1  0  0  0  0
 15 16  1  0  0  0  0
 15 17  1  0  0  0  0
 16 34  1  0  0  0  0
 16 35  1  0  0  0  0
 16 36  1  0  0  0  0
 17 37  1  0  0  0  0
 17 38  1  0  0  0  0
 17 39  1  0  0  0  0
 18 19  2  0  0  0  0
 18 40  1  0  0  0  0
 19 41  1  0  0  0  0
M  END
$$$$

 OpenBabel12201709243D

 34 35  0  0  0  0  0  0  0  0999 V2000
    0.8878    1.4049   -1.7925 C   0  0  0  0  0  0  0  0  0  0  0  0
    2.2542    1.8849   -1.3099 C   0  0  0  0  0  0  0  0  0  0  0  0
    2.1190    2.6135    0.0230 C   0  0  0  0  0  0  0  0  0  0  0  0
    3.0942    0.7345   -1.1373 O   0  0  0  0  0  0  0  0  0  0  0  0
    4.4302    0.8549   -1.4076 C   0  0  0  0  0  0  0  0  0  0  0  0
    5.0976    2.0393   -1.7042 C   0  0  0  0  0  0  0  0  0  0  0  0
    6.4499    2.0153   -2.0537 C   0  0  0  0  0  0  0  0  0  0  0  0
    7.1769    0.8210   -2.0768 C   0  0  0  0  0  0  0  0  0  0  0  0
    8.4989    0.8693   -2.5536 N   0  0  0  0  0  0  0  0  0  0  0  0
    9.6129    0.0593   -2.2698 C   0  0  0  0  0  0  0  0  0  0  0  0
   10.5373   -0.2216   -3.2867 C   0  0  0  0  0  0  0  0  0  0  0  0
   11.7062   -0.9386   -3.0227 C   0  0  0  0  0  0  0  0  0  0  0  0
   11.9714   -1.3764   -1.7285 C   0  0  0  0  0  0  0  0  0  0  0  0
   11.0551   -1.1211   -0.7094 C   0  0  0  0  0  0  0  0  0  0  0  0
    9.8755   -0.4188   -0.9812 C   0  0  0  0  0  0  0  0  0  0  0  0
    6.5261   -0.3578   -1.7074 C   0  0  0  0  0  0  0  0  0  0  0  0
    5.1596   -0.3390   -1.3847 C   0  0  0  0  0  0  0  0  0  0  0  0
    0.2073    2.2500   -1.9421 H   0  0  0  0  0  0  0  0  0  0  0  0
    0.4332    0.7084   -1.0808 H   0  0  0  0  0  0  0  0  0  0  0  0
    0.9871    0.8718   -2.7443 H   0  0  0  0  0  0  0  0  0  0  0  0
    2.6280    2.5600   -2.0870 H   0  0  0  0  0  0  0  0  0  0  0  0
    1.7720    1.9315    0.8073 H   0  0  0  0  0  0  0  0  0  0  0  0
    1.4177    3.4503   -0.0506 H   0  0  0  0  0  0  0  0  0  0  0  0
    3.0861    3.0048    0.3546 H   0  0  0  0  0  0  0  0  0  0  0  0
    4.6051    3.0038   -1.6854 H   0  0  0  0  0  0  0  0  0  0  0  0
    6.9435    2.9496   -2.3103 H   0  0  0  0  0  0  0  0  0  0  0  0
    8.5198    1.2466   -3.4982 H   0  0  0  0  0  0  0  0  0  0  0  0
   10.3549    0.1223   -4.3023 H   0  0  0  0  0  0  0  0  0  0  0  0
   12.4126   -1.1401   -3.8233 H   0  0  0  0  0  0  0  0  0  0  0  0
   12.8944   -1.9083   -1.5128 H   0  0  0  0  0  0  0  0  0  0  0  0
   11.2672   -1.4498    0.3046 H   0  0  0  0  0  0  0  0  0  0  0  0
    9.1896   -0.1995   -0.1674 H   0  0  0  0  0  0  0  0  0  0  0  0
    7.0551   -1.3069   -1.7154 H   0  0  0  0  0  0  0  0  0  0  0  0
    4.6565   -1.2708   -1.1395 H   0  0  0  0  0  0  0  0  0  0  0  0
  1  2  1  0  0  0  0
  1 18  1  0  0  0  0
  1 19  1  0  0  0  0
  1 20  1  0  0  0  0
  2  3  1  0  0  0  0
  2  4  1  0  0  0  0
  2 21  1  0  0  0  0
  3 22  1  0  0  0  0
  3 23  1  0  0  0  0
  3 24  1  0  0  0  0
  4  5  1  0  0  0  0
  5  6  2  0  0  0  0
  5 17  1  0  0  0  0
  6  7  1  0  0  0  0
  6 25  1  0  0  0  0
  7  8  2  0  0  0  0
  7 26  1  0  0  0  0
  8  9  1  0  0  0  0
  8 16  1  0  0  0  0
  9 10  1  0  0  0  0
  9 27  1  0  0  0  0
 10 11  2  0  0  0  0
 10 15  1  0  0  0  0
 11 12  1  0  0  0  0
 11 28  1  0  0  0  0
 12 13  2  0  0  0  0
 12 29  1  0  0  0  0
 13 14  1  0  0  0  0
 13 30  1  0  0  0  0
 14 15  2  0  0  0  0
 14 31  1  0  0  0  0
 15 32  1  0  0  0  0
 16 17  2  0  0  0  0
 16 33  1  0  0  0  0
 17 34  1  0  0  0  0
M  END
$$$$

 OpenBabel12201709243D

 27 28  0  0  0  0  0  0  0  0999 V2000
    1.0284    0.5818    0.5358 N   0  0  0  0  0  0  0  0  0  0  0  0
    2.3919    0.4266    0.2581 C   0  0  0  0  0  0  0  0  0  0  0  0
    3.3390    1.1832    0.9493 C   0  0  0  0  0  0  0  0  0  0  0  0
    4.7038    0.9758    0.7344 C   0  0  0  0  0  0  0  0  0  0  0  0
    5.1432   -0.0267   -0.1334 C   0  0  0  0  0  0  0  0  0  0  0  0
    6.4991   -0.0494   -0.3480 O   0  0  0  0  0  0  0  0  0  0  0  0
    7.1575   -1.2001   -0.7047 C   0  0  0  0  0  0  0  0  0  0  0  0
    8.2649   -1.0205   -1.5374 C   0  0  0  0  0  0  0  0  0  0  0  0
    9.0879   -2.1024   -1.8631 C   0  0  0  0  0  0  0  0  0  0  0  0
    8.7994   -3.3817   -1.3895 C   0  0  0  0  0  0  0  0  0  0  0  0
    9.7140   -4.4243   -1.5804 N   0  0  0  0  0  0  0  0  0  0  0  0
    7.7195   -3.5428   -0.5146 C   0  0  0  0  0  0  0  0  0  0  0  0
    6.8955   -2.4610   -0.1769 C   0  0  0  0  0  0  0  0  0  0  0  0
    4.2050   -0.8313   -0.7765 C   0  0  0  0  0  0  0  0  0  0  0  0
    2.8371   -0.6244   -0.5496 C   0  0  0  0  0  0  0  0  0  0  0  0
    0.7849    1.5195    0.8425 H   0  0  0  0  0  0  0  0  0  0  0  0
    0.4258    0.2627   -0.2165 H   0  0  0  0  0  0  0  0  0  0  0  0
    3.0255    1.9561    1.6443 H   0  0  0  0  0  0  0  0  0  0  0  0
    5.4289    1.6053    1.2439 H   0  0  0  0  0  0  0  0  0  0  0  0
    8.5092   -0.0286   -1.9061 H   0  0  0  0  0  0  0  0  0  0  0  0
    9.9707   -1.9274   -2.4727 H   0  0  0  0  0  0  0  0  0  0  0  0
   10.2649   -4.3403   -2.4298 H   0  0  0  0  0  0  0  0  0  0  0  0
    9.3204   -5.3520   -1.4629 H   0  0  0  0  0  0  0  0  0  0  0  0
    7.5232   -4.5137   -0.0663 H   0  0  0  0  0  0  0  0  0  0  0  0
    6.0838   -2.6149    0.5274 H   0  0  0  0  0  0  0  0  0  0  0  0
    4.5107   -1.6141   -1.4638 H   0  0  0  0  0  0  0  0  0  0  0  0
    2.1176   -1.2810   -1.0317 H   0  0  0  0  0  0  0  0  0  0  0  0
  1  2  1  0  0  0  0
  1 16  1  0  0  0  0
  1 17  1  0  0  0  0
  2  3  2  0  0  0  0
  2 15  1  0  0  0  0
  3  4  1  0  0  0  0
  3 18  1  0  0  0  0
  4  5  2  0  0  0  0
  4 19  1  0  0  0  0
  5  6  1  0  0  0  0
  5 14  1  0  0  0  0
  6  7  1  0  0  0  0
  7  8  2  0  0  0  0
  7 13  1  0  0  0  0
  8  9  1  0  0  0  0
  8 20  1  0  0  0  0
  9 10  2  0  0  0  0
  9 21  1  0  0  0  0
 10 11  1  0  0  0  0
 10 12  1  0  0  0  0
 11 22  1  0  0  0  0
 11 23  1  0  0  0  0
 12 13  2  0  0  0  0
 12 24  1  0  0  0  0
 13 25  1  0  0  0  0
 14 15  2  0  0  0  0
 14 26  1  0  0  0  0
 15 27  1  0  0  0  0
M  END
$$$$

 OpenBabel12201709243D

 30 32  0  0  1  0  0  0  0  0999 V2000
    0.9592   -0.3299    0.4489 C   0  0  0  0  0  0  0  0  0  0  0  0
    0.4656    0.9334    0.9039 O   0  0  0  0  0  0  0  0  0  0  0  0
   -0.8879    1.0153    1.0953 C   0  0  0  0  0  0  0  0  0  0  0  0
   -1.7387   -0.0780    1.2735 C   0  0  0  0  0  0  0  0  0  0  0  0
   -3.1096    0.1254    1.4198 C   0  0  0  0  0  0  0  0  0  0  0  0
   -3.6260    1.4172    1.4046 C   0  0  0  0  0  0  0  0  0  0  0  0
   -2.7807    2.5194    1.2490 C   0  0  0  0  0  0  0  0  0  0  0  0
   -3.4205    3.7246    1.2764 O   0  0  0  0  0  0  0  0  0  0  0  0
   -2.7433    4.8392    0.6982 C   0  0  0  0  0  0  0  0  0  0  0  0
   -3.6693    6.0103    0.7859 C   0  0  3  0  0  0  0  0  0  0  0  0
   -4.0418    6.5817    2.1295 C   0  0  0  0  0  0  0  0  0  0  0  0
   -3.0857    7.2241    1.2729 O   0  0  0  0  0  0  0  0  0  0  0  0
   -1.4081    2.3161    1.1115 C   0  0  0  0  0  0  0  0  0  0  0  0
    2.2865   -0.1042   -0.1948 C   0  0  3  0  0  0  0  0  0  0  0  0
    3.5012    0.2350    0.6179 C   0  0  0  0  0  0  0  0  0  0  0  0
    3.2840   -1.0879    0.1109 O   0  0  0  0  0  0  0  0  0  0  0  0
    0.2933   -0.7662   -0.3063 H   0  0  0  0  0  0  0  0  0  0  0  0
    1.0409   -1.0158    1.3007 H   0  0  0  0  0  0  0  0  0  0  0  0
   -1.3644   -1.0959    1.3098 H   0  0  0  0  0  0  0  0  0  0  0  0
   -3.7775   -0.7230    1.5424 H   0  0  0  0  0  0  0  0  0  0  0  0
   -4.6955    1.5741    1.5123 H   0  0  0  0  0  0  0  0  0  0  0  0
   -2.5200    4.6353   -0.3563 H   0  0  0  0  0  0  0  0  0  0  0  0
   -1.8140    5.0534    1.2367 H   0  0  0  0  0  0  0  0  0  0  0  0
   -4.3929    6.0574   -0.0160 H   0  0  0  0  0  0  0  0  0  0  0  0
   -3.6759    6.0850    3.0202 H   0  0  0  0  0  0  0  0  0  0  0  0
   -5.0150    7.0430    2.2366 H   0  0  0  0  0  0  0  0  0  0  0  0
   -0.7147    3.1456    1.0179 H   0  0  0  0  0  0  0  0  0  0  0  0
    2.2140    0.2575   -1.2095 H   0  0  0  0  0  0  0  0  0  0  0  0
    3.3900    0.4034    1.6787 H   0  0  0  0  0  0  0  0  0  0  0  0
    4.2774    0.8278    0.1472 H   0  0  0  0  0  0  0  0  0  0  0  0
  1  2  1  0  0  0  0
  1 14  1  0  0  0  0
  1 17  1  0  0  0  0
  1 18  1  0  0  0  0
  2  3  1  0  0  0  0
  3  4  2  0  0  0  0
  3 13  1  0  0  0  0
  4  5  1  0  0  0  0
  4 19  1  0  0  0  0
  5  6  2  0  0  0  0
  5 20  1  0  0  0  0
  6  7  1  0  0  0  0
  6 21  1  0  0  0  0
  7  8  1  0  0  0  0
  7 13  2  0  0  0  0
  8  9  1  0  0  0  0
  9 10  1  0  0  0  0
  9 22  1  0  0  0  0
  9 23  1  0  0  0  0
 10 11  1  0  0  0  0
 10 12  1  0  0  0  0
 10 24  1  0  0  0  0
 11 12  1  0  0  0  0
 11 25  1  0  0  0  0
 11 26  1  0  0  0  0
 13 27  1  0  0  0  0
 14 15  1  0  0  0  0
 14 16  1  0  0  0  0
 14 28  1  0  0  0  0
 15 16  1  0  0  0  0
 15 29  1  0  0  0  0
 15 30  1  0  0  0  0
M  END
$$$$

 OpenBabel12201709243D

 21 21  0  0  0  0  0  0  0  0999 V2000
    1.1940   -0.0707   -0.1075 C   0  0  0  0  0  0  0  0  0  0  0  0
    2.5806   -0.0811    0.2073 O   0  0  0  0  0  0  0  0  0  0  0  0
    3.1764    1.1326    0.4083 C   0  0  0  0  0  0  0  0  0  0  0  0
    2.5524    2.3727    0.3556 C   0  0  0  0  0  0  0  0  0  0  0  0
    3.2945    3.5367    0.5841 C   0  0  0  0  0  0  0  0  0  0  0  0
    4.6758    3.4944    0.8248 C   0  0  0  0  0  0  0  0  0  0  0  0
    5.3278    4.6907    1.1600 N   0  0  0  0  0  0  0  0  0  0  0  0
    5.2969    2.2406    0.9418 C   0  0  0  0  0  0  0  0  0  0  0  0
    6.7412    2.0519    1.3159 C   0  0  0  0  0  0  0  0  0  0  0  0
    4.5381    1.0753    0.7107 C   0  0  0  0  0  0  0  0  0  0  0  0
    0.8798   -1.1066   -0.2677 H   0  0  0  0  0  0  0  0  0  0  0  0
    1.0012    0.4816   -1.0333 H   0  0  0  0  0  0  0  0  0  0  0  0
    0.6054    0.3317    0.7235 H   0  0  0  0  0  0  0  0  0  0  0  0
    1.4919    2.4753    0.1549 H   0  0  0  0  0  0  0  0  0  0  0  0
    2.7768    4.4930    0.5686 H   0  0  0  0  0  0  0  0  0  0  0  0
    4.8812    5.5166    0.7736 H   0  0  0  0  0  0  0  0  0  0  0  0
    6.3229    4.6866    0.9682 H   0  0  0  0  0  0  0  0  0  0  0  0
    7.2885    2.9895    1.4325 H   0  0  0  0  0  0  0  0  0  0  0  0
    7.2538    1.4732    0.5395 H   0  0  0  0  0  0  0  0  0  0  0  0
    6.8112    1.5110    2.2657 H   0  0  0  0  0  0  0  0  0  0  0  0
    5.0156    0.0997    0.7825 H   0  0  0  0  0  0  0  0  0  0  0  0
  1  2  1  0  0  0  0
  1 11  1  0  0  0  0
  1 12  1  0  0  0  0
  1 13  1  0  0  0  0
  2  3  1  0  0  0  0
  3  4  2  0  0  0  0
  3 10  1  0  0  0  0
  4  5  1  0  0  0  0
  4 14  1  0  0  0  0
  5  6  2  0  0  0  0
  5 15  1  0  0  0  0
  6  7  1  0  0  0  0
  6  8  1  0  0  0  0
  7 16  1  0  0  0  0
  7 17  1  0  0  0  0
  8  9  1  0  0  0  0
  8 10  2  0  0  0  0
  9 18  1  0  0  0  0
  9 19  1  0  0  0  0
  9 20  1  0  0  0  0
 10 21  1  0  0  0  0
M  END
$$$$

 OpenBabel12201709243D

 25 24  0  0  0  0  0  0  0  0999 V2000
    0.8326    0.0602    0.2117 O   0  0  0  0  0  0  0  0  0  0  0  0
    2.2358    0.0115   -0.0468 C   0  0  0  0  0  0  0  0  0  0  0  0
    2.9511    0.9716    0.9203 C   0  0  0  0  0  0  0  0  0  0  0  0
    4.4388    0.9954    0.8631 N   0  0  0  0  0  0  0  0  0  0  0  0
    4.8800    1.4181   -0.4988 C   0  0  0  0  0  0  0  0  0  0  0  0
    6.4020    1.4221   -0.7348 C   0  0  0  0  0  0  0  0  0  0  0  0
    6.9564    0.1427   -0.4523 O   0  0  0  0  0  0  0  0  0  0  0  0
    4.9596    1.9502    1.8859 C   0  0  0  0  0  0  0  0  0  0  0  0
    4.6460    1.5763    3.3469 C   0  0  0  0  0  0  0  0  0  0  0  0
    5.1078    0.2599    3.6318 O   0  0  0  0  0  0  0  0  0  0  0  0
    0.4075   -0.5559   -0.4092 H   0  0  0  0  0  0  0  0  0  0  0  0
    2.3845    0.2955   -1.0900 H   0  0  0  0  0  0  0  0  0  0  0  0
    2.5788   -1.0180    0.1033 H   0  0  0  0  0  0  0  0  0  0  0  0
    2.6315    0.6649    1.9222 H   0  0  0  0  0  0  0  0  0  0  0  0
    2.5454    1.9830    0.7762 H   0  0  0  0  0  0  0  0  0  0  0  0
    4.4743    2.4077   -0.7465 H   0  0  0  0  0  0  0  0  0  0  0  0
    4.4804    0.7027   -1.2240 H   0  0  0  0  0  0  0  0  0  0  0  0
    6.9174    2.1723   -0.1282 H   0  0  0  0  0  0  0  0  0  0  0  0
    6.6108    1.6537   -1.7845 H   0  0  0  0  0  0  0  0  0  0  0  0
    6.5730   -0.1289    0.4036 H   0  0  0  0  0  0  0  0  0  0  0  0
    4.5989    2.9666    1.6864 H   0  0  0  0  0  0  0  0  0  0  0  0
    6.0520    1.9647    1.8187 H   0  0  0  0  0  0  0  0  0  0  0  0
    3.5779    1.6312    3.5731 H   0  0  0  0  0  0  0  0  0  0  0  0
    5.1581    2.2678    4.0239 H   0  0  0  0  0  0  0  0  0  0  0  0
    4.8069   -0.2896    2.8833 H   0  0  0  0  0  0  0  0  0  0  0  0
  1  2  1  0  0  0  0
  1 11  1  0  0  0  0
  2  3  1  0  0  0  0
  2 12  1  0  0  0  0
  2 13  1  0  0  0  0
  3  4  1  0  0  0  0
  3 14  1  0  0  0  0
  3 15  1  0  0  0  0
  4  5  1  0  0  0  0
  4  8  1  0  0  0  0
  5  6  1  0  0  0  0
  5 16  1  0  0  0  0
  5 17  1  0  0  0  0
  6  7  1  0  0  0  0
  6 18  1  0  0  0  0
  6 19  1  0  0  0  0
  7 20  1  0  0  0  0
  8  9  1  0  0  0  0
  8 21  1  0  0  0  0
  8 22  1  0  0  0  0
  9 10  1  0  0  0  0
  9 23  1  0  0  0  0
  9 24  1  0  0  0  0
 10 25  1  0  0  0  0
M  END
$$$$

 OpenBabel12201709243D

 68 67  0  0  1  0  0  0  0  0999 V2000
    5.1004    2.7633    3.7252 C   0  0  0  0  0  0  0  0  0  0  0  0
    5.0265    3.1678    2.2594 C   0  0  0  0  0  0  0  0  0  0  0  0
    5.8471    2.2136    1.3939 C   0  0  0  0  0  0  0  0  0  0  0  0
    5.8132    2.5915   -0.0906 C   0  0  0  0  0  0  0  0  0  0  0  0
    6.6720    1.6477   -0.9664 C   0  0  3  0  0  0  0  0  0  0  0  0
    6.2818    0.1543   -0.8520 C   0  0  0  0  0  0  0  0  0  0  0  0
    4.8856   -0.1906   -1.3506 C   0  0  0  0  0  0  0  0  0  0  0  0
    6.6625    2.0847   -2.4427 C   0  0  0  0  0  0  0  0  0  0  0  0
    7.2104    3.3931   -2.6691 O   0  0  0  0  0  0  0  0  0  0  0  0
    8.5713    3.4535   -2.7002 C   0  0  0  0  0  0  0  0  0  0  0  0
    9.3242    2.5774   -2.3035 O   0  0  0  0  0  0  0  0  0  0  0  0
    9.0115    4.7275   -3.3851 C   0  0  0  0  0  0  0  0  0  0  0  0
   10.5354    4.8348   -3.4294 C   0  0  0  0  0  0  0  0  0  0  0  0
   10.9967    6.0275   -4.2648 C   0  0  0  0  0  0  0  0  0  0  0  0
   12.5191    6.1276   -4.2718 C   0  0  0  0  0  0  0  0  0  0  0  0
   13.0081    7.2062   -5.2060 C   0  0  0  0  0  0  0  0  0  0  0  0
   12.4606    7.5114   -6.2557 O   0  0  0  0  0  0  0  0  0  0  0  0
   14.2117    7.6818   -4.7765 O   0  0  0  0  0  0  0  0  0  0  0  0
   15.0211    8.2761   -5.8014 C   0  0  0  0  0  0  0  0  0  0  0  0
   14.6421    9.7300   -6.1406 C   0  0  3  0  0  0  0  0  0  0  0  0
   14.7078   10.6594   -4.9080 C   0  0  0  0  0  0  0  0  0  0  0  0
   16.0939   10.8568   -4.3095 C   0  0  0  0  0  0  0  0  0  0  0  0
   15.4894   10.2693   -7.3168 C   0  0  0  0  0  0  0  0  0  0  0  0
   15.3024    9.4642   -8.6104 C   0  0  0  0  0  0  0  0  0  0  0  0
   16.1370   10.0180   -9.7634 C   0  0  0  0  0  0  0  0  0  0  0  0
   15.9820    9.1531  -11.0065 C   0  0  0  0  0  0  0  0  0  0  0  0
    4.4817    3.4262    4.3372 H   0  0  0  0  0  0  0  0  0  0  0  0
    6.1296    2.8202    4.0945 H   0  0  0  0  0  0  0  0  0  0  0  0
    4.7438    1.7377    3.8684 H   0  0  0  0  0  0  0  0  0  0  0  0
    5.3935    4.1938    2.1463 H   0  0  0  0  0  0  0  0  0  0  0  0
    3.9796    3.1553    1.9350 H   0  0  0  0  0  0  0  0  0  0  0  0
    5.4487    1.2035    1.5341 H   0  0  0  0  0  0  0  0  0  0  0  0
    6.8870    2.2045    1.7418 H   0  0  0  0  0  0  0  0  0  0  0  0
    6.1895    3.6177   -0.1990 H   0  0  0  0  0  0  0  0  0  0  0  0
    4.7770    2.6063   -0.4474 H   0  0  0  0  0  0  0  0  0  0  0  0
    7.6983    1.7338   -0.5881 H   0  0  0  0  0  0  0  0  0  0  0  0
    6.3865   -0.1774    0.1836 H   0  0  0  0  0  0  0  0  0  0  0  0
    7.0085   -0.4445   -1.4191 H   0  0  0  0  0  0  0  0  0  0  0  0
    4.1290    0.5118   -0.9908 H   0  0  0  0  0  0  0  0  0  0  0  0
    4.6034   -1.1888   -1.0012 H   0  0  0  0  0  0  0  0  0  0  0  0
    4.8526   -0.2038   -2.4446 H   0  0  0  0  0  0  0  0  0  0  0  0
    5.6354    2.1154   -2.8218 H   0  0  0  0  0  0  0  0  0  0  0  0
    7.2022    1.3620   -3.0683 H   0  0  0  0  0  0  0  0  0  0  0  0
    8.5885    5.5903   -2.8602 H   0  0  0  0  0  0  0  0  0  0  0  0
    8.6165    4.7000   -4.4076 H   0  0  0  0  0  0  0  0  0  0  0  0
   10.9578    3.9135   -3.8578 H   0  0  0  0  0  0  0  0  0  0  0  0
   10.9279    4.9141   -2.4095 H   0  0  0  0  0  0  0  0  0  0  0  0
   10.5690    6.9553   -3.8668 H   0  0  0  0  0  0  0  0  0  0  0  0
   10.6207    5.9202   -5.2902 H   0  0  0  0  0  0  0  0  0  0  0  0
   12.9637    5.1870   -4.6183 H   0  0  0  0  0  0  0  0  0  0  0  0
   12.8813    6.3253   -3.2573 H   0  0  0  0  0  0  0  0  0  0  0  0
   14.9660    7.6251   -6.6787 H   0  0  0  0  0  0  0  0  0  0  0  0
   16.0595    8.2207   -5.4586 H   0  0  0  0  0  0  0  0  0  0  0  0
   13.5922    9.7464   -6.4600 H   0  0  0  0  0  0  0  0  0  0  0  0
   14.0413   10.2730   -4.1274 H   0  0  0  0  0  0  0  0  0  0  0  0
   14.3109   11.6447   -5.1847 H   0  0  0  0  0  0  0  0  0  0  0  0
   16.5609    9.9068   -4.0363 H   0  0  0  0  0  0  0  0  0  0  0  0
   16.0237   11.4626   -3.3999 H   0  0  0  0  0  0  0  0  0  0  0  0
   16.7567   11.3847   -5.0020 H   0  0  0  0  0  0  0  0  0  0  0  0
   16.5518   10.2649   -7.0464 H   0  0  0  0  0  0  0  0  0  0  0  0
   15.2120   11.3138   -7.5076 H   0  0  0  0  0  0  0  0  0  0  0  0
   14.2417    9.4581   -8.8888 H   0  0  0  0  0  0  0  0  0  0  0  0
   15.6030    8.4236   -8.4562 H   0  0  0  0  0  0  0  0  0  0  0  0
   17.1949   10.0446   -9.4772 H   0  0  0  0  0  0  0  0  0  0  0  0
   15.8316   11.0450   -9.9908 H   0  0  0  0  0  0  0  0  0  0  0  0
   16.3105    8.1262  -10.8127 H   0  0  0  0  0  0  0  0  0  0  0  0
   16.5855    9.5518  -11.8272 H   0  0  0  0  0  0  0  0  0  0  0  0
   14.9377    9.1201  -11.3336 H   0  0  0  0  0  0  0  0  0  0  0  0
  1  2  1  0  0  0  0
  1 27  1  0  0  0  0
  1 28  1  0  0  0  0
  1 29  1  0  0  0  0
  2  3  1  0  0  0  0
  2 30  1  0  0  0  0
  2 31  1  0  0  0  0
  3  4  1  0  0  0  0
  3 32  1  0  0  0  0
  3 33  1  0  0  0  0
  4  5  1  0  0  0  0
  4 34  1  0  0  0  0
  4 35  1  0  0  0  0
  5  6  1  0  0  0  0
  5  8  1  0  0  0  0
  5 36  1  0  0  0  0
  6  7  1  0  0  0  0
  6 37  1  0  0  0  0
  6 38  1  0  0  0  0
  7 39  1  0  0  0  0
  7 40  1  0  0  0  0
  7 41  1  0  0  0  0
  8  9  1  0  0  0  0
  8 42  1  0  0  0  0
  8 43  1  0  0  0  0
  9 10  1  0  0  0  0
 10 11  2  0  0  0  0
 10 12  1  0  0  0  0
 12 13  1  0  0  0  0
 12 44  1  0  0  0  0
 12 45  1  0  0  0  0
 13 14  1  0  0  0  0
 13 46  1  0  0  0  0
 13 47  1  0  0  0  0
 14 15  1  0  0  0  0
 14 48  1  0  0  0  0
 14 49  1  0  0  0  0
 15 16  1  0  0  0  0
 15 50  1  0  0  0  0
 15 51  1  0  0  0  0
 16 17  2  0  0  0  0
 16 18  1  0  0  0  0
 18 19  1  0  0  0  0
 19 20  1  0  0  0  0
 19 52  1  0  0  0  0
 19 53  1  0  0  0  0
 20 21  1  0  0  0  0
 20 23  1  0  0  0  0
 20 54  1  0  0  0  0
 21 22  1  0  0  0  0
 21 55  1  0  0  0  0
 21 56  1  0  0  0  0
 22 57  1  0  0  0  0
 22 58  1  0  0  0  0
 22 59  1  0  0  0  0
 23 24  1  0  0  0  0
 23 60  1  0  0  0  0
 23 61  1  0  0  0  0
 24 25  1  0  0  0  0
 24 62  1  0  0  0  0
 24 63  1  0  0  0  0
 25 26  1  0  0  0  0
 25 64  1  0  0  0  0
 25 65  1  0  0  0  0
 26 66  1  0  0  0  0
 26 67  1  0  0  0  0
 26 68  1  0  0  0  0
M  END
$$$$

 OpenBabel12201709243D

 24 25  0  0  0  0  0  0  0  0999 V2000
    0.8825    0.0138    0.0121 N   0  0  0  0  0  0  0  0  0  0  0  0
    0.3211    1.1256    0.1002 N   0  0  0  0  0  0  0  0  0  0  0  0
   -1.0805    1.0154   -0.0151 C   0  0  0  0  0  0  0  0  0  0  0  0
   -1.8234   -0.0524    0.5118 C   0  0  0  0  0  0  0  0  0  0  0  0
   -3.2087   -0.1150    0.3382 C   0  0  0  0  0  0  0  0  0  0  0  0
   -3.8706    0.8989   -0.3515 C   0  0  0  0  0  0  0  0  0  0  0  0
   -3.1511    1.9797   -0.8570 C   0  0  0  0  0  0  0  0  0  0  0  0
   -1.7659    2.0367   -0.6841 C   0  0  0  0  0  0  0  0  0  0  0  0
    2.2873    0.1117   -0.0575 C   0  0  0  0  0  0  0  0  0  0  0  0
    3.0392    1.1313    0.5439 C   0  0  0  0  0  0  0  0  0  0  0  0
    4.4313    1.1623    0.4175 C   0  0  0  0  0  0  0  0  0  0  0  0
    5.0896    0.1658   -0.3010 C   0  0  0  0  0  0  0  0  0  0  0  0
    4.3590   -0.8652   -0.8862 C   0  0  0  0  0  0  0  0  0  0  0  0
    2.9677   -0.8908   -0.7612 C   0  0  0  0  0  0  0  0  0  0  0  0
   -1.3194   -0.8483    1.0540 H   0  0  0  0  0  0  0  0  0  0  0  0
   -3.7673   -0.9575    0.7375 H   0  0  0  0  0  0  0  0  0  0  0  0
   -4.9470    0.8473   -0.4941 H   0  0  0  0  0  0  0  0  0  0  0  0
   -3.6642    2.7753   -1.3904 H   0  0  0  0  0  0  0  0  0  0  0  0
   -1.2087    2.8794   -1.0859 H   0  0  0  0  0  0  0  0  0  0  0  0
    2.5417    1.9128    1.1124 H   0  0  0  0  0  0  0  0  0  0  0  0
    4.9999    1.9645    0.8801 H   0  0  0  0  0  0  0  0  0  0  0  0
    6.1718    0.1920   -0.4031 H   0  0  0  0  0  0  0  0  0  0  0  0
    4.8674   -1.6473   -1.4438 H   0  0  0  0  0  0  0  0  0  0  0  0
    2.4024   -1.6969   -1.2212 H   0  0  0  0  0  0  0  0  0  0  0  0
  1  2  2  3  0  0  0
  1  9  1  0  0  0  0
  2  3  1  0  0  0  0
  3  4  2  0  0  0  0
  3  8  1  0  0  0  0
  4  5  1  0  0  0  0
  4 15  1  0  0  0  0
  5  6  2  0  0  0  0
  5 16  1  0  0  0  0
  6  7  1  0  0  0  0
  6 17  1  0  0  0  0
  7  8  2  0  0  0  0
  7 18  1  0  0  0  0
  8 19  1  0  0  0  0
  9 10  2  0  0  0  0
  9 14  1  0  0  0  0
 10 11  1  0  0  0  0
 10 20  1  0  0  0  0
 11 12  2  0  0  0  0
 11 21  1  0  0  0  0
 12 13  1  0  0  0  0
 12 22  1  0  0  0  0
 13 14  2  0  0  0  0
 13 23  1  0  0  0  0
 14 24  1  0  0  0  0
M  END
$$$$

 OpenBabel12201709243D

 18 18  0  0  0  0  0  0  0  0999 V2000
    1.0872   -1.6014   -0.2213 N   0  0  0  0  0  0  0  0  0  0  0  0
    2.2064   -1.8730    0.5120 C   0  0  0  0  0  0  0  0  0  0  0  0
    2.1778   -3.1583    1.5673 S   0  0  0  0  0  0  0  0  0  0  0  0
    3.1999   -0.9519    0.2898 N   0  0  0  0  0  0  0  0  0  0  0  0
    4.5902   -1.0987    0.4691 C   0  0  0  0  0  0  0  0  0  0  0  0
    5.2379   -2.3301    0.3242 C   0  0  0  0  0  0  0  0  0  0  0  0
    6.6247   -2.4213    0.4499 C   0  0  0  0  0  0  0  0  0  0  0  0
    7.3774   -1.2805    0.7184 C   0  0  0  0  0  0  0  0  0  0  0  0
    6.7430   -0.0466    0.8476 C   0  0  0  0  0  0  0  0  0  0  0  0
    5.3555    0.0475    0.7063 C   0  0  0  0  0  0  0  0  0  0  0  0
    0.3650   -2.3127   -0.1770 H   0  0  0  0  0  0  0  0  0  0  0  0
    1.2228   -1.1913   -1.1363 H   0  0  0  0  0  0  0  0  0  0  0  0
    2.8614   -0.0041    0.1775 H   0  0  0  0  0  0  0  0  0  0  0  0
    4.6845   -3.2308    0.0730 H   0  0  0  0  0  0  0  0  0  0  0  0
    7.1145   -3.3837    0.3268 H   0  0  0  0  0  0  0  0  0  0  0  0
    8.4568   -1.3541    0.8214 H   0  0  0  0  0  0  0  0  0  0  0  0
    7.3297    0.8441    1.0577 H   0  0  0  0  0  0  0  0  0  0  0  0
    4.8838    1.0190    0.8140 H   0  0  0  0  0  0  0  0  0  0  0  0
  1  2  1  0  0  0  0
  1 11  1  0  0  0  0
  1 12  1  0  0  0  0
  2  3  2  0  0  0  0
  2  4  1  0  0  0  0
  4  5  1  0  0  0  0
  4 13  1  0  0  0  0
  5  6  2  0  0  0  0
  5 10  1  0  0  0  0
  6  7  1  0  0  0  0
  6 14  1  0  0  0  0
  7  8  2  0  0  0  0
  7 15  1  0  0  0  0
  8  9  1  0  0  0  0
  8 16  1  0  0  0  0
  9 10  2  0  0  0  0
  9 17  1  0  0  0  0
 10 18  1  0  0  0  0
M  END
$$$$

 OpenBabel12201709243D

 20 20  0  0  0  0  0  0  0  0999 V2000
    0.8806    1.6209   -0.5281 C   0  0  0  0  0  0  0  0  0  0  0  0
    2.3019    2.0184   -0.8311 C   0  0  0  0  0  0  0  0  0  0  0  0
    2.5571    3.1372   -1.2631 O   0  0  0  0  0  0  0  0  0  0  0  0
    3.2067    1.0034   -0.5686 N   0  0  0  0  0  0  0  0  0  0  0  0
    4.6108    1.0855   -0.6907 C   0  0  0  0  0  0  0  0  0  0  0  0
    5.2965    2.2962   -0.8241 C   0  0  0  0  0  0  0  0  0  0  0  0
    6.6868    2.3186   -0.9663 C   0  0  0  0  0  0  0  0  0  0  0  0
    7.3919    1.1232   -0.9743 C   0  0  0  0  0  0  0  0  0  0  0  0
    8.7453    1.1012   -1.1341 O   0  0  0  0  0  0  0  0  0  0  0  0
    6.7330   -0.0897   -0.8187 C   0  0  0  0  0  0  0  0  0  0  0  0
    5.3426   -0.1085   -0.6653 C   0  0  0  0  0  0  0  0  0  0  0  0
    0.2012    2.3761   -0.9355 H   0  0  0  0  0  0  0  0  0  0  0  0
    0.7401    1.5653    0.5544 H   0  0  0  0  0  0  0  0  0  0  0  0
    0.6421    0.6589   -0.9890 H   0  0  0  0  0  0  0  0  0  0  0  0
    2.8262    0.0885   -0.3621 H   0  0  0  0  0  0  0  0  0  0  0  0
    4.7754    3.2480   -0.8043 H   0  0  0  0  0  0  0  0  0  0  0  0
    7.1885    3.2755   -1.0684 H   0  0  0  0  0  0  0  0  0  0  0  0
    9.0512    2.0122   -1.2796 H   0  0  0  0  0  0  0  0  0  0  0  0
    7.2977   -1.0176   -0.8267 H   0  0  0  0  0  0  0  0  0  0  0  0
    4.8465   -1.0685   -0.5554 H   0  0  0  0  0  0  0  0  0  0  0  0
  1  2  1  0  0  0  0
  1 12  1  0  0  0  0
  1 13  1  0  0  0  0
  1 14  1  0  0  0  0
  2  3  2  0  0  0  0
  2  4  1  0  0  0  0
  4  5  1  0  0  0  0
  4 15  1  0  0  0  0
  5  6  2  0  0  0  0
  5 11  1  0  0  0  0
  6  7  1  0  0  0  0
  6 16  1  0  0  0  0
  7  8  2  0  0  0  0
  7 17  1  0  0  0  0
  8  9  1  0  0  0  0
  8 10  1  0  0  0  0
  9 18  1  0  0  0  0
 10 11  2  0  0  0  0
 10 19  1  0  0  0  0
 11 20  1  0  0  0  0
M  END
$$$$

 OpenBabel12201709243D

 24 23  0  0  1  0  0  0  0  0999 V2000
    0.8940   -0.1000   -0.0640 O   0  0  0  0  0  0  0  0  0  0  0  0
    2.3309    0.0201   -0.1578 C   0  0  3  0  0  0  0  0  0  0  0  0
    2.7454    1.4703    0.0697 C   0  0  0  0  0  0  0  0  0  0  0  0
    2.0631    2.5823   -1.3900 Br  0  0  0  0  0  0  0  0  0  0  0  0
    2.9151   -0.9466    0.8926 C   0  0  3  0  0  0  0  0  0  0  0  0
    2.5401   -2.3028    0.5563 O   0  0  0  0  0  0  0  0  0  0  0  0
    4.4453   -0.9338    1.0836 C   0  0  3  0  0  0  0  0  0  0  0  0
    4.7641   -1.8671    2.1291 O   0  0  0  0  0  0  0  0  0  0  0  0
    5.2336   -1.3227   -0.1850 C   0  0  3  0  0  0  0  0  0  0  0  0
    4.9750   -0.4115   -1.2601 O   0  0  0  0  0  0  0  0  0  0  0  0
    6.7417   -1.4526    0.0359 C   0  0  0  0  0  0  0  0  0  0  0  0
    7.5486    0.2846    0.4445 Br  0  0  0  0  0  0  0  0  0  0  0  0
    0.5188    0.5592   -0.6799 H   0  0  0  0  0  0  0  0  0  0  0  0
    2.5749   -0.3231   -1.1670 H   0  0  0  0  0  0  0  0  0  0  0  0
    3.8268    1.6181    0.0603 H   0  0  0  0  0  0  0  0  0  0  0  0
    2.3155    1.8893    0.9833 H   0  0  0  0  0  0  0  0  0  0  0  0
    2.4367   -0.7586    1.8631 H   0  0  0  0  0  0  0  0  0  0  0  0
    1.6679   -2.2284    0.1181 H   0  0  0  0  0  0  0  0  0  0  0  0
    4.7475    0.0570    1.4378 H   0  0  0  0  0  0  0  0  0  0  0  0
    4.1620   -2.6286    1.9869 H   0  0  0  0  0  0  0  0  0  0  0  0
    4.8862   -2.3100   -0.5215 H   0  0  0  0  0  0  0  0  0  0  0  0
    5.6413    0.2971   -1.2149 H   0  0  0  0  0  0  0  0  0  0  0  0
    7.2417   -1.7697   -0.8876 H   0  0  0  0  0  0  0  0  0  0  0  0
    7.0055   -2.1343    0.8456 H   0  0  0  0  0  0  0  0  0  0  0  0
  1  2  1  0  0  0  0
  1 13  1  0  0  0  0
  2  3  1  0  0  0  0
  2  5  1  0  0  0  0
  2 14  1  0  0  0  0
  3  4  1  0  0  0  0
  3 15  1  0  0  0  0
  3 16  1  0  0  0  0
  5  6  1  0  0  0  0
  5  7  1  0  0  0  0
  5 17  1  0  0  0  0
  6 18  1  0  0  0  0
  7  8  1  0  0  0  0
  7  9  1  0  0  0  0
  7 19  1  0  0  0  0
  8 20  1  0  0  0  0
  9 10  1  0  0  0  0
  9 11  1  0  0  0  0
  9 21  1  0  0  0  0
 10 22  1  0  0  0  0
 11 12  1  0  0  0  0
 11 23  1  0  0  0  0
 11 24  1  0  0  0  0
M  END
$$$$

 OpenBabel12201709243D

 23 23  0  0  0  0  0  0  0  0999 V2000
    1.2269    0.4849    0.7050 C   0  0  0  0  0  0  0  0  0  0  0  0
    2.4454    0.1033    0.0705 O   0  0  0  0  0  0  0  0  0  0  0  0
    2.9123    1.0016   -0.8512 C   0  0  0  0  0  0  0  0  0  0  0  0
    2.7365    2.3807   -0.7684 C   0  0  0  0  0  0  0  0  0  0  0  0
    3.2172    3.2100   -1.7849 C   0  0  0  0  0  0  0  0  0  0  0  0
    3.8965    2.6768   -2.8867 C   0  0  0  0  0  0  0  0  0  0  0  0
    4.2717    3.5858   -3.9778 C   0  0  0  0  0  0  0  0  0  0  0  0
    5.3401    3.4441   -4.7770 C   0  0  0  0  0  0  0  0  0  0  0  0
    5.6568    4.3921   -5.8871 C   0  0  0  0  0  0  0  0  0  0  0  0
    4.1074    1.2931   -2.9396 C   0  0  0  0  0  0  0  0  0  0  0  0
    3.6284    0.4630   -1.9206 C   0  0  0  0  0  0  0  0  0  0  0  0
    0.8528   -0.3759    1.2648 H   0  0  0  0  0  0  0  0  0  0  0  0
    0.4650    0.7640   -0.0315 H   0  0  0  0  0  0  0  0  0  0  0  0
    1.3926    1.2973    1.4211 H   0  0  0  0  0  0  0  0  0  0  0  0
    2.2321    2.8405    0.0740 H   0  0  0  0  0  0  0  0  0  0  0  0
    3.0526    4.2822   -1.7081 H   0  0  0  0  0  0  0  0  0  0  0  0
    3.6039    4.4333   -4.1222 H   0  0  0  0  0  0  0  0  0  0  0  0
    6.0327    2.6186   -4.6392 H   0  0  0  0  0  0  0  0  0  0  0  0
    4.9038    5.1815   -5.9882 H   0  0  0  0  0  0  0  0  0  0  0  0
    5.7076    3.8463   -6.8345 H   0  0  0  0  0  0  0  0  0  0  0  0
    6.6269    4.8660   -5.7124 H   0  0  0  0  0  0  0  0  0  0  0  0
    4.6209    0.8404   -3.7841 H   0  0  0  0  0  0  0  0  0  0  0  0
    3.7856   -0.6110   -1.9789 H   0  0  0  0  0  0  0  0  0  0  0  0
  1  2  1  0  0  0  0
  1 12  1  0  0  0  0
  1 13  1  0  0  0  0
  1 14  1  0  0  0  0
  2  3  1  0  0  0  0
  3  4  2  0  0  0  0
  3 11  1  0  0  0  0
  4  5  1  0  0  0  0
  4 15  1  0  0  0  0
  5  6  2  0  0  0  0
  5 16  1  0  0  0  0
  6  7  1  0  0  0  0
  6 10  1  0  0  0  0
  7  8  2  3  0  0  0
  7 17  1  0  0  0  0
  8  9  1  0  0  0  0
  8 18  1  0  0  0  0
  9 19  1  0  0  0  0
  9 20  1  0  0  0  0
  9 21  1  0  0  0  0
 10 11  2  0  0  0  0
 10 22  1  0  0  0  0
 11 23  1  0  0  0  0
M  END
$$$$

 OpenBabel12201709243D

 16 16  0  0  0  0  0  0  0  0999 V2000
    0.9243    0.0187    0.1104 O   0  0  0  0  0  0  0  0  0  0  0  0
    2.3186    0.1142    0.0048 N   0  0  0  0  0  0  0  0  0  0  0  0
    2.9228   -0.8090    0.6887 C   0  0  0  0  0  0  0  0  0  0  0  0
    2.2748   -1.8442    1.5350 C   0  0  0  0  0  0  0  0  0  0  0  0
    2.9702   -2.8629    2.0485 C   0  0  0  0  0  0  0  0  0  0  0  0
    4.4209   -3.0288    1.7983 C   0  0  0  0  0  0  0  0  0  0  0  0
    4.9804   -4.1420    2.1653 N   0  0  0  0  0  0  0  0  0  0  0  0
    6.3407   -4.1819    1.8332 O   0  0  0  0  0  0  0  0  0  0  0  0
    5.0973   -1.8806    1.1405 C   0  0  0  0  0  0  0  0  0  0  0  0
    4.4037   -0.8569    0.6353 C   0  0  0  0  0  0  0  0  0  0  0  0
    0.6226    0.6919   -0.5277 H   0  0  0  0  0  0  0  0  0  0  0  0
    1.2090   -1.7560    1.7064 H   0  0  0  0  0  0  0  0  0  0  0  0
    2.4898   -3.6308    2.6442 H   0  0  0  0  0  0  0  0  0  0  0  0
    6.5856   -5.0949    2.0739 H   0  0  0  0  0  0  0  0  0  0  0  0
    6.1777   -1.9102    1.0666 H   0  0  0  0  0  0  0  0  0  0  0  0
    4.8976   -0.0330    0.1333 H   0  0  0  0  0  0  0  0  0  0  0  0
  1  2  1  0  0  0  0
  1 11  1  0  0  0  0
  2  3  2  3  0  0  0
  3  4  1  0  0  0  0
  3 10  1  0  0  0  0
  4  5  2  0  0  0  0
  4 12  1  0  0  0  0
  5  6  1  0  0  0  0
  5 13  1  0  0  0  0
  6  7  2  3  0  0  0
  6  9  1  0  0  0  0
  7  8  1  0  0  0  0
  8 14  1  0  0  0  0
  9 10  2  0  0  0  0
  9 15  1  0  0  0  0
 10 16  1  0  0  0  0
M  END
$$$$

 OpenBabel12201709243D

 20 19  0  0  0  0  0  0  0  0999 V2000
    1.0587   -1.2738   -0.3327 C   0  0  0  0  0  0  0  0  0  0  0  0
    2.4702   -0.7185   -0.3014 C   0  0  0  0  0  0  0  0  0  0  0  0
    3.1686   -1.1445    0.9041 N   0  0  0  0  0  0  0  0  0  0  0  0
    4.5138   -0.9525    1.1593 C   0  0  0  0  0  0  0  0  0  0  0  0
    5.5939   -0.1941    0.1392 S   0  0  0  0  0  0  0  0  0  0  0  0
    4.8204   -1.4891    2.3962 N   0  0  0  0  0  0  0  0  0  0  0  0
    6.1370   -1.4719    3.0200 C   0  0  0  0  0  0  0  0  0  0  0  0
    6.0554   -1.9347    4.4625 C   0  0  0  0  0  0  0  0  0  0  0  0
    0.5699   -1.0269   -1.2798 H   0  0  0  0  0  0  0  0  0  0  0  0
    0.4584   -0.8558    0.4824 H   0  0  0  0  0  0  0  0  0  0  0  0
    1.0625   -2.3629   -0.2180 H   0  0  0  0  0  0  0  0  0  0  0  0
    2.4498    0.3764   -0.3188 H   0  0  0  0  0  0  0  0  0  0  0  0
    3.0282   -1.0696   -1.1754 H   0  0  0  0  0  0  0  0  0  0  0  0
    2.6058   -1.1800    1.7435 H   0  0  0  0  0  0  0  0  0  0  0  0
    4.2294   -2.2697    2.6490 H   0  0  0  0  0  0  0  0  0  0  0  0
    6.5359   -0.4534    2.9783 H   0  0  0  0  0  0  0  0  0  0  0  0
    6.7983   -2.1284    2.4444 H   0  0  0  0  0  0  0  0  0  0  0  0
    5.3259   -1.3413    5.0240 H   0  0  0  0  0  0  0  0  0  0  0  0
    7.0290   -1.8400    4.9524 H   0  0  0  0  0  0  0  0  0  0  0  0
    5.7438   -2.9832    4.5176 H   0  0  0  0  0  0  0  0  0  0  0  0
  1  2  1  0  0  0  0
  1  9  1  0  0  0  0
  1 10  1  0  0  0  0
  1 11  1  0  0  0  0
  2  3  1  0  0  0  0
  2 12  1  0  0  0  0
  2 13  1  0  0  0  0
  3  4  1  0  0  0  0
  3 14  1  0  0  0  0
  4  5  2  0  0  0  0
  4  6  1  0  0  0  0
  6  7  1  0  0  0  0
  6 15  1  0  0  0  0
  7  8  1  0  0  0  0
  7 16  1  0  0  0  0
  7 17  1  0  0  0  0
  8 18  1  0  0  0  0
  8 19  1  0  0  0  0
  8 20  1  0  0  0  0
M  END
$$$$

 OpenBabel12201709243D

 19 19  0  0  0  0  0  0  0  0999 V2000
    1.3286    0.1304   -0.9805 O   0  0  0  0  0  0  0  0  0  0  0  0
    2.3427    0.1486   -0.2770 C   0  0  0  0  0  0  0  0  0  0  0  0
    2.9666   -1.1410    0.2091 C   0  0  0  0  0  0  0  0  0  0  0  0
    3.8869   -1.1187    1.4220 C   0  0  0  0  0  0  0  0  0  0  0  0
    5.1354   -0.2795    1.1866 C   0  0  0  0  0  0  0  0  0  0  0  0
    4.9360    1.2087    1.4516 C   0  0  0  0  0  0  0  0  0  0  0  0
    3.5345    1.7450    1.1939 C   0  0  0  0  0  0  0  0  0  0  0  0
    2.9521    1.3510   -0.0658 N   0  0  0  0  0  0  0  0  0  0  0  0
    3.5072   -1.5651   -0.6481 H   0  0  0  0  0  0  0  0  0  0  0  0
    2.1396   -1.8279    0.4315 H   0  0  0  0  0  0  0  0  0  0  0  0
    4.2030   -2.1521    1.6132 H   0  0  0  0  0  0  0  0  0  0  0  0
    3.3500   -0.7911    2.3187 H   0  0  0  0  0  0  0  0  0  0  0  0
    5.4939   -0.4222    0.1596 H   0  0  0  0  0  0  0  0  0  0  0  0
    5.9423   -0.6372    1.8388 H   0  0  0  0  0  0  0  0  0  0  0  0
    5.6659    1.7700    0.8559 H   0  0  0  0  0  0  0  0  0  0  0  0
    5.1815    1.4173    2.5017 H   0  0  0  0  0  0  0  0  0  0  0  0
    3.5714    2.8392    1.1977 H   0  0  0  0  0  0  0  0  0  0  0  0
    2.8494    1.4448    1.9940 H   0  0  0  0  0  0  0  0  0  0  0  0
    2.4135    2.0770   -0.5241 H   0  0  0  0  0  0  0  0  0  0  0  0
  1  2  2  0  0  0  0
  2  3  1  0  0  0  0
  2  8  1  0  0  0  0
  3  4  1  0  0  0  0
  3  9  1  0  0  0  0
  3 10  1  0  0  0  0
  4  5  1  0  0  0  0
  4 11  1  0  0  0  0
  4 12  1  0  0  0  0
  5  6  1  0  0  0  0
  5 13  1  0  0  0  0
  5 14  1  0  0  0  0
  6  7  1  0  0  0  0
  6 15  1  0  0  0  0
  6 16  1  0  0  0  0
  7  8  1  0  0  0  0
  7 17  1  0  0  0  0
  7 18  1  0  0  0  0
  8 19  1  0  0  0  0
M  END
$$$$

 OpenBabel12201709243D

 29 31  0  0  0  0  0  0  0  0999 V2000
    1.0209    0.0175    0.0524 C   0  0  0  0  0  0  0  0  0  0  0  0
    2.4614    0.0236    0.0535 N   0  0  0  0  0  0  0  0  0  0  0  0
    3.3133   -1.0540    0.0060 C   0  0  0  0  0  0  0  0  0  0  0  0
    2.8942   -2.3271   -0.0764 N   0  0  0  0  0  0  0  0  0  0  0  0
    4.5679   -0.6763    0.0333 N   0  0  0  0  0  0  0  0  0  0  0  0
    4.5346    0.6878    0.0717 C   0  0  0  0  0  0  0  0  0  0  0  0
    5.6142    1.4973    0.0944 N   0  0  0  0  0  0  0  0  0  0  0  0
    5.3167    2.8214    0.0956 C   0  0  0  0  0  0  0  0  0  0  0  0
    4.0419    3.4113    0.0767 C   0  0  0  0  0  0  0  0  0  0  0  0
    2.9463    2.5325    0.0753 C   0  0  0  0  0  0  0  0  0  0  0  0
    3.2322    1.1640    0.0730 C   0  0  0  0  0  0  0  0  0  0  0  0
    3.8571    4.8815    0.0408 C   0  0  0  0  0  0  0  0  0  0  0  0
    4.7512    5.7186   -0.6537 C   0  0  0  0  0  0  0  0  0  0  0  0
    4.5728    7.1058   -0.6936 C   0  0  0  0  0  0  0  0  0  0  0  0
    3.4873    7.6891   -0.0491 C   0  0  0  0  0  0  0  0  0  0  0  0
    2.5843    6.8866    0.6395 C   0  0  0  0  0  0  0  0  0  0  0  0
    2.7719    5.5011    0.6880 C   0  0  0  0  0  0  0  0  0  0  0  0
    0.6337   -1.0019    0.0582 H   0  0  0  0  0  0  0  0  0  0  0  0
    0.6746    0.5348   -0.8462 H   0  0  0  0  0  0  0  0  0  0  0  0
    0.6735    0.5401    0.9483 H   0  0  0  0  0  0  0  0  0  0  0  0
    1.9796   -2.6258    0.2365 H   0  0  0  0  0  0  0  0  0  0  0  0
    3.6155   -3.0312    0.0539 H   0  0  0  0  0  0  0  0  0  0  0  0
    6.2089    3.4448    0.1203 H   0  0  0  0  0  0  0  0  0  0  0  0
    1.9232    2.8887    0.0481 H   0  0  0  0  0  0  0  0  0  0  0  0
    5.5990    5.3013   -1.1936 H   0  0  0  0  0  0  0  0  0  0  0  0
    5.2817    7.7274   -1.2350 H   0  0  0  0  0  0  0  0  0  0  0  0
    3.3454    8.7659   -0.0843 H   0  0  0  0  0  0  0  0  0  0  0  0
    1.7328    7.3363    1.1437 H   0  0  0  0  0  0  0  0  0  0  0  0
    2.0544    4.9105    1.2534 H   0  0  0  0  0  0  0  0  0  0  0  0
  1  2  1  0  0  0  0
  1 18  1  0  0  0  0
  1 19  1  0  0  0  0
  1 20  1  0  0  0  0
  2  3  1  0  0  0  0
  2 11  1  0  0  0  0
  3  4  1  0  0  0  0
  3  5  2  0  0  0  0
  4 21  1  0  0  0  0
  4 22  1  0  0  0  0
  5  6  1  0  0  0  0
  6  7  2  0  0  0  0
  6 11  1  0  0  0  0
  7  8  1  0  0  0  0
  8  9  2  0  0  0  0
  8 23  1  0  0  0  0
  9 10  1  0  0  0  0
  9 12  1  0  0  0  0
 10 11  2  0  0  0  0
 10 24  1  0  0  0  0
 12 13  2  0  0  0  0
 12 17  1  0  0  0  0
 13 14  1  0  0  0  0
 13 25  1  0  0  0  0
 14 15  2  0  0  0  0
 14 26  1  0  0  0  0
 15 16  1  0  0  0  0
 15 27  1  0  0  0  0
 16 17  2  0  0  0  0
 16 28  1  0  0  0  0
 17 29  1  0  0  0  0
M  END
$$$$

 OpenBabel12201709243D

 14 13  0  0  0  0  0  0  0  0999 V2000
    0.9261    0.0233    0.0118 C   0  0  0  0  0  0  0  0  0  0  0  0
    2.4367   -0.0846   -0.1641 C   0  0  0  0  0  0  0  0  0  0  0  0
    2.9474   -0.4621   -1.4884 N   0  0  0  0  0  0  0  0  0  0  0  0
    2.0783   -1.2349   -2.3750 C   0  0  0  0  0  0  0  0  0  0  0  0
    4.2281   -0.7692   -1.4784 N   0  0  0  0  0  0  0  0  0  0  0  0
    4.6354   -1.2140   -2.5485 O   0  0  0  0  0  0  0  0  0  0  0  0
    0.6973    0.4812    0.9798 H   0  0  0  0  0  0  0  0  0  0  0  0
    0.4540   -0.9655   -0.0026 H   0  0  0  0  0  0  0  0  0  0  0  0
    0.4723    0.6485   -0.7619 H   0  0  0  0  0  0  0  0  0  0  0  0
    2.8100   -0.7663    0.6076 H   0  0  0  0  0  0  0  0  0  0  0  0
    2.8538    0.9013    0.0676 H   0  0  0  0  0  0  0  0  0  0  0  0
    1.0065   -1.0567   -2.2118 H   0  0  0  0  0  0  0  0  0  0  0  0
    2.2418   -2.3151   -2.2973 H   0  0  0  0  0  0  0  0  0  0  0  0
    2.2543   -0.9317   -3.4119 H   0  0  0  0  0  0  0  0  0  0  0  0
  1  2  1  0  0  0  0
  1  7  1  0  0  0  0
  1  8  1  0  0  0  0
  1  9  1  0  0  0  0
  2  3  1  0  0  0  0
  2 10  1  0  0  0  0
  2 11  1  0  0  0  0
  3  4  1  0  0  0  0
  3  5  1  0  0  0  0
  4 12  1  0  0  0  0
  4 13  1  0  0  0  0
  4 14  1  0  0  0  0
  5  6  2  0  0  0  0
M  END
$$$$

 OpenBabel12201709243D

 12 12  0  0  0  0  0  0  0  0999 V2000
    1.0965    0.0076    0.1282 Cl  0  0  0  0  0  0  0  0  0  0  0  0
    2.8064    0.0246   -0.0583 C   0  0  0  0  0  0  0  0  0  0  0  0
    3.4826    1.2425   -0.1335 C   0  0  0  0  0  0  0  0  0  0  0  0
    4.8714    1.2563   -0.2851 C   0  0  0  0  0  0  0  0  0  0  0  0
    5.5718    0.0521   -0.3602 C   0  0  0  0  0  0  0  0  0  0  0  0
    7.2816    0.0691   -0.5470 Cl  0  0  0  0  0  0  0  0  0  0  0  0
    4.8956   -1.1657   -0.2848 C   0  0  0  0  0  0  0  0  0  0  0  0
    3.5067   -1.1796   -0.1332 C   0  0  0  0  0  0  0  0  0  0  0  0
    2.9367    2.1805   -0.0751 H   0  0  0  0  0  0  0  0  0  0  0  0
    5.3986    2.2050   -0.3438 H   0  0  0  0  0  0  0  0  0  0  0  0
    5.4415   -2.1038   -0.3432 H   0  0  0  0  0  0  0  0  0  0  0  0
    2.9796   -2.1283   -0.0745 H   0  0  0  0  0  0  0  0  0  0  0  0
  1  2  1  0  0  0  0
  2  3  2  0  0  0  0
  2  8  1  0  0  0  0
  3  4  1  0  0  0  0
  3  9  1  0  0  0  0
  4  5  2  0  0  0  0
  4 10  1  0  0  0  0
  5  6  1  0  0  0  0
  5  7  1  0  0  0  0
  7  8  2  0  0  0  0
  7 11  1  0  0  0  0
  8 12  1  0  0  0  0
M  END
$$$$

 OpenBabel12201709243D

 14 14  0  0  0  0  0  0  0  0999 V2000
    1.0079    0.0941    0.2449 N   0  0  0  0  0  0  0  0  0  0  0  0
    2.3783    0.1077   -0.0363 C   0  0  0  0  0  0  0  0  0  0  0  0
    3.0793    1.3171   -0.0603 C   0  0  0  0  0  0  0  0  0  0  0  0
    4.4679    1.3348   -0.2215 C   0  0  0  0  0  0  0  0  0  0  0  0
    5.1669    0.1343   -0.3135 C   0  0  0  0  0  0  0  0  0  0  0  0
    6.8754    0.1508   -0.5129 Cl  0  0  0  0  0  0  0  0  0  0  0  0
    4.4906   -1.0792   -0.2257 C   0  0  0  0  0  0  0  0  0  0  0  0
    3.1018   -1.0883   -0.0657 C   0  0  0  0  0  0  0  0  0  0  0  0
    0.5194    0.9339   -0.0504 H   0  0  0  0  0  0  0  0  0  0  0  0
    0.5344   -0.7505   -0.0611 H   0  0  0  0  0  0  0  0  0  0  0  0
    2.5483    2.2595    0.0450 H   0  0  0  0  0  0  0  0  0  0  0  0
    4.9941    2.2843   -0.2595 H   0  0  0  0  0  0  0  0  0  0  0  0
    5.0346   -2.0186   -0.2669 H   0  0  0  0  0  0  0  0  0  0  0  0
    2.5886   -2.0410    0.0363 H   0  0  0  0  0  0  0  0  0  0  0  0
  1  2  1  0  0  0  0
  1  9  1  0  0  0  0
  1 10  1  0  0  0  0
  2  3  2  0  0  0  0
  2  8  1  0  0  0  0
  3  4  1  0  0  0  0
  3 11  1  0  0  0  0
  4  5  2  0  0  0  0
  4 12  1  0  0  0  0
  5  6  1  0  0  0  0
  5  7  1  0  0  0  0
  7  8  2  0  0  0  0
  7 13  1  0  0  0  0
  8 14  1  0  0  0  0
M  END
$$$$

 OpenBabel12201709243D

 16 16  0  0  0  0  0  0  0  0999 V2000
    1.0861   -0.0400    0.1667 N   0  0  0  0  0  0  0  0  0  0  0  0
    2.4580   -0.0168   -0.1102 C   0  0  0  0  0  0  0  0  0  0  0  0
    3.1525    1.1928   -0.1321 C   0  0  0  0  0  0  0  0  0  0  0  0
    4.5434    1.2165   -0.2878 C   0  0  0  0  0  0  0  0  0  0  0  0
    5.2661    0.0308   -0.4219 C   0  0  0  0  0  0  0  0  0  0  0  0
    6.6653    0.0553   -0.4530 N   0  0  0  0  0  0  0  0  0  0  0  0
    4.5858   -1.1780   -0.2722 C   0  0  0  0  0  0  0  0  0  0  0  0
    3.1946   -1.2017   -0.1190 C   0  0  0  0  0  0  0  0  0  0  0  0
    0.5955    0.7941   -0.1399 H   0  0  0  0  0  0  0  0  0  0  0  0
    0.6244   -0.8906   -0.1393 H   0  0  0  0  0  0  0  0  0  0  0  0
    2.6199    2.1324   -0.0153 H   0  0  0  0  0  0  0  0  0  0  0  0
    5.0566    2.1738   -0.2882 H   0  0  0  0  0  0  0  0  0  0  0  0
    7.0473    0.8999   -0.8669 H   0  0  0  0  0  0  0  0  0  0  0  0
    7.0782   -0.7849   -0.8453 H   0  0  0  0  0  0  0  0  0  0  0  0
    5.1325   -2.1168   -0.2603 H   0  0  0  0  0  0  0  0  0  0  0  0
    2.6954   -2.1582    0.0081 H   0  0  0  0  0  0  0  0  0  0  0  0
  1  2  1  0  0  0  0
  1  9  1  0  0  0  0
  1 10  1  0  0  0  0
  2  3  2  0  0  0  0
  2  8  1  0  0  0  0
  3  4  1  0  0  0  0
  3 11  1  0  0  0  0
  4  5  2  0  0  0  0
  4 12  1  0  0  0  0
  5  6  1  0  0  0  0
  5  7  1  0  0  0  0
  6 13  1  0  0  0  0
  6 14  1  0  0  0  0
  7  8  2  0  0  0  0
  7 15  1  0  0  0  0
  8 16  1  0  0  0  0
M  END
$$$$

 OpenBabel12201709243D

 12 12  0  0  0  0  0  0  0  0999 V2000
    1.1169   -0.0226   -0.3379 O   0  0  0  0  0  0  0  0  0  0  0  0
    2.3067   -0.0178   -0.0543 C   0  0  0  0  0  0  0  0  0  0  0  0
    3.0479    1.2465    0.1238 C   0  0  0  0  0  0  0  0  0  0  0  0
    4.3411    1.2516    0.4610 C   0  0  0  0  0  0  0  0  0  0  0  0
    5.0840   -0.0073    0.6702 C   0  0  0  0  0  0  0  0  0  0  0  0
    6.2609   -0.0024    1.0040 O   0  0  0  0  0  0  0  0  0  0  0  0
    4.3517   -1.2712    0.4586 C   0  0  0  0  0  0  0  0  0  0  0  0
    3.0585   -1.2764    0.1210 C   0  0  0  0  0  0  0  0  0  0  0  0
    2.4876    2.1606   -0.0307 H   0  0  0  0  0  0  0  0  0  0  0  0
    4.8989    2.1699    0.5980 H   0  0  0  0  0  0  0  0  0  0  0  0
    4.9170   -2.1855    0.5939 H   0  0  0  0  0  0  0  0  0  0  0  0
    2.5058   -2.1948   -0.0357 H   0  0  0  0  0  0  0  0  0  0  0  0
  1  2  2  0  0  0  0
  2  3  1  0  0  0  0
  2  8  1  0  0  0  0
  3  4  2  0  0  0  0
  3  9  1  0  0  0  0
  4  5  1  0  0  0  0
  4 10  1  0  0  0  0
  5  6  2  0  0  0  0
  5  7  1  0  0  0  0
  7  8  2  0  0  0  0
  7 11  1  0  0  0  0
  8 12  1  0  0  0  0
M  END
$$$$

 OpenBabel12201709243D

 22 24  0  0  1  0  0  0  0  0999 V2000
   -0.1493    0.7367   -0.0852 C   0  0  0  0  0  0  0  0  0  0  0  0
   -0.4958   -0.6516   -0.1452 O   0  0  0  0  0  0  0  0  0  0  0  0
    0.9037   -0.3471   -0.0680 C   0  0  3  0  0  0  0  0  0  0  0  0
    1.5550   -0.7443    1.2238 C   0  0  3  0  0  0  0  0  0  0  0  0
    1.4938   -2.2917    1.4577 C   0  0  0  0  0  0  0  0  0  0  0  0
    2.3820   -2.7585    2.6529 C   0  0  0  0  0  0  0  0  0  0  0  0
    3.7175   -2.1870    2.3773 C   0  0  3  0  0  0  0  0  0  0  0  0
    4.6271   -1.3857    3.0785 O   0  0  0  0  0  0  0  0  0  0  0  0
    3.5110   -0.6680    2.6285 C   0  0  3  0  0  0  0  0  0  0  0  0
    3.0178   -0.1841    1.3205 C   0  0  0  0  0  0  0  0  0  0  0  0
   -0.3834    1.2641    0.8317 H   0  0  0  0  0  0  0  0  0  0  0  0
   -0.2786    1.3226   -0.9869 H   0  0  0  0  0  0  0  0  0  0  0  0
    1.5004   -0.5253   -0.9506 H   0  0  0  0  0  0  0  0  0  0  0  0
    0.9855   -0.2957    2.0505 H   0  0  0  0  0  0  0  0  0  0  0  0
    1.8391   -2.7979    0.5448 H   0  0  0  0  0  0  0  0  0  0  0  0
    0.4577   -2.6119    1.6173 H   0  0  0  0  0  0  0  0  0  0  0  0
    2.4232   -3.8521    2.6775 H   0  0  0  0  0  0  0  0  0  0  0  0
    1.9549   -2.4220    3.6049 H   0  0  0  0  0  0  0  0  0  0  0  0
    4.1127   -2.5751    1.4445 H   0  0  0  0  0  0  0  0  0  0  0  0
    2.8888   -0.2906    3.4339 H   0  0  0  0  0  0  0  0  0  0  0  0
    3.6307   -0.5177    0.4739 H   0  0  0  0  0  0  0  0  0  0  0  0
    3.0008    0.9107    1.2931 H   0  0  0  0  0  0  0  0  0  0  0  0
  1  2  1  0  0  0  0
  1  3  1  0  0  0  0
  1 11  1  0  0  0  0
  1 12  1  0  0  0  0
  2  3  1  0  0  0  0
  3  4  1  0  0  0  0
  3 13  1  0  0  0  0
  4  5  1  0  0  0  0
  4 10  1  0  0  0  0
  4 14  1  0  0  0  0
  5  6  1  0  0  0  0
  5 15  1  0  0  0  0
  5 16  1  0  0  0  0
  6  7  1  0  0  0  0
  6 17  1  0  0  0  0
  6 18  1  0  0  0  0
  7  8  1  0  0  0  0
  7  9  1  0  0  0  0
  7 19  1  0  0  0  0
  8  9  1  0  0  0  0
  9 10  1  0  0  0  0
  9 20  1  0  0  0  0
 10 21  1  0  0  0  0
 10 22  1  0  0  0  0
M  END
$$$$

 OpenBabel12201709243D

 13 13  0  0  1  0  0  0  0  0999 V2000
    0.8568    0.0565    0.0556 C   0  0  0  0  0  0  0  0  0  0  0  0
    2.3702   -0.0646   -0.0121 C   0  0  0  0  0  0  0  0  0  0  0  0
    3.0450    1.2286    0.3201 C   0  0  3  0  0  0  0  0  0  0  0  0
    4.5419    1.3575    0.2078 C   0  0  0  0  0  0  0  0  0  0  0  0
    3.6603    1.8902   -0.7909 O   0  0  0  0  0  0  0  0  0  0  0  0
    0.3857   -0.9008   -0.1883 H   0  0  0  0  0  0  0  0  0  0  0  0
    0.4909    0.8112   -0.6477 H   0  0  0  0  0  0  0  0  0  0  0  0
    0.5323    0.3489    1.0601 H   0  0  0  0  0  0  0  0  0  0  0  0
    2.6611   -0.4092   -1.0119 H   0  0  0  0  0  0  0  0  0  0  0  0
    2.6982   -0.8298    0.7000 H   0  0  0  0  0  0  0  0  0  0  0  0
    2.5373    1.8257    1.0657 H   0  0  0  0  0  0  0  0  0  0  0  0
    5.1235    0.4814   -0.0464 H   0  0  0  0  0  0  0  0  0  0  0  0
    5.0433    2.0630    0.8585 H   0  0  0  0  0  0  0  0  0  0  0  0
  1  2  1  0  0  0  0
  1  6  1  0  0  0  0
  1  7  1  0  0  0  0
  1  8  1  0  0  0  0
  2  3  1  0  0  0  0
  2  9  1  0  0  0  0
  2 10  1  0  0  0  0
  3  4  1  0  0  0  0
  3  5  1  0  0  0  0
  3 11  1  0  0  0  0
  4  5  1  0  0  0  0
  4 12  1  0  0  0  0
  4 13  1  0  0  0  0
M  END
$$$$

 OpenBabel12201709243D

 10 10  0  0  1  0  0  0  0  0999 V2000
    1.4607   -0.9235   -0.5321 Cl  0  0  0  0  0  0  0  0  0  0  0  0
    2.8319    0.0551    0.0347 C   0  0  0  0  0  0  0  0  0  0  0  0
    3.2148   -0.3932    1.4014 C   0  0  3  0  0  0  0  0  0  0  0  0
    3.9222   -1.7045    1.6399 C   0  0  0  0  0  0  0  0  0  0  0  0
    4.6286   -0.4557    1.6342 O   0  0  0  0  0  0  0  0  0  0  0  0
    2.5143    1.1019    0.0488 H   0  0  0  0  0  0  0  0  0  0  0  0
    3.6478   -0.0531   -0.6862 H   0  0  0  0  0  0  0  0  0  0  0  0
    2.5872    0.0127    2.1824 H   0  0  0  0  0  0  0  0  0  0  0  0
    4.0712   -2.3780    0.8054 H   0  0  0  0  0  0  0  0  0  0  0  0
    3.7795   -2.1944    2.5955 H   0  0  0  0  0  0  0  0  0  0  0  0
  1  2  1  0  0  0  0
  2  3  1  0  0  0  0
  2  6  1  0  0  0  0
  2  7  1  0  0  0  0
  3  4  1  0  0  0  0
  3  5  1  0  0  0  0
  3  8  1  0  0  0  0
  4  5  1  0  0  0  0
  4  9  1  0  0  0  0
  4 10  1  0  0  0  0
M  END
$$$$

 OpenBabel12201709243D

 18 18  0  0  1  0  0  0  0  0999 V2000
    1.4983   -0.8541   -0.6348 C   0  0  0  0  0  0  0  0  0  0  0  0
    2.3886   -0.0429   -0.0482 C   0  0  0  0  0  0  0  0  0  0  0  0
    3.1080    1.0721   -0.7355 C   0  0  0  0  0  0  0  0  0  0  0  0
    4.5043    0.8449   -0.5705 O   0  0  0  0  0  0  0  0  0  0  0  0
    5.2750    1.8096   -1.2856 C   0  0  0  0  0  0  0  0  0  0  0  0
    6.7199    1.4861   -1.1088 C   0  0  3  0  0  0  0  0  0  0  0  0
    7.3064    0.2225   -1.6794 C   0  0  0  0  0  0  0  0  0  0  0  0
    7.4952    1.4956   -2.3149 O   0  0  0  0  0  0  0  0  0  0  0  0
    1.0192   -1.6488   -0.0712 H   0  0  0  0  0  0  0  0  0  0  0  0
    1.2366   -0.7543   -1.6827 H   0  0  0  0  0  0  0  0  0  0  0  0
    2.6234   -0.1878    1.0040 H   0  0  0  0  0  0  0  0  0  0  0  0
    2.8361    2.0258   -0.2704 H   0  0  0  0  0  0  0  0  0  0  0  0
    2.8549    1.1078   -1.8012 H   0  0  0  0  0  0  0  0  0  0  0  0
    5.0716    2.8095   -0.8861 H   0  0  0  0  0  0  0  0  0  0  0  0
    4.9974    1.7923   -2.3464 H   0  0  0  0  0  0  0  0  0  0  0  0
    7.1518    1.8992   -0.2081 H   0  0  0  0  0  0  0  0  0  0  0  0
    6.6369   -0.4894   -2.1461 H   0  0  0  0  0  0  0  0  0  0  0  0
    8.1581   -0.2177   -1.1768 H   0  0  0  0  0  0  0  0  0  0  0  0
  1  2  2  0  0  0  0
  1  9  1  0  0  0  0
  1 10  1  0  0  0  0
  2  3  1  0  0  0  0
  2 11  1  0  0  0  0
  3  4  1  0  0  0  0
  3 12  1  0  0  0  0
  3 13  1  0  0  0  0
  4  5  1  0  0  0  0
  5  6  1  0  0  0  0
  5 14  1  0  0  0  0
  5 15  1  0  0  0  0
  6  7  1  0  0  0  0
  6  8  1  0  0  0  0
  6 16  1  0  0  0  0
  7  8  1  0  0  0  0
  7 17  1  0  0  0  0
  7 18  1  0  0  0  0
M  END
$$$$

 OpenBabel12201709243D

  8  7  0  0  0  0  0  0  0  0999 V2000
    1.0921   -0.0436   -0.0539 Br  0  0  0  0  0  0  0  0  0  0  0  0
    3.0392   -0.0632   -0.0367 C   0  0  0  0  0  0  0  0  0  0  0  0
    3.5252   -1.0969    0.9500 C   0  0  0  0  0  0  0  0  0  0  0  0
    5.4723   -1.1168    0.9669 Br  0  0  0  0  0  0  0  0  0  0  0  0
    3.3593    0.9486    0.2287 H   0  0  0  0  0  0  0  0  0  0  0  0
    3.3583   -0.2820   -1.0600 H   0  0  0  0  0  0  0  0  0  0  0  0
    3.2049   -2.1087    0.6847 H   0  0  0  0  0  0  0  0  0  0  0  0
    3.2063   -0.8780    1.9732 H   0  0  0  0  0  0  0  0  0  0  0  0
  1  2  1  0  0  0  0
  2  3  1  0  0  0  0
  2  5  1  0  0  0  0
  2  6  1  0  0  0  0
  3  4  1  0  0  0  0
  3  7  1  0  0  0  0
  3  8  1  0  0  0  0
M  END
$$$$

 OpenBabel12201709243D

 10  9  0  0  0  0  0  0  0  0999 V2000
    0.9482   -0.0613   -0.0388 C   0  0  0  0  0  0  0  0  0  0  0  0
    2.2858   -0.0557   -0.0602 C   0  0  0  0  0  0  0  0  0  0  0  0
    3.0493    0.2256   -1.2504 C   0  0  0  0  0  0  0  0  0  0  0  0
    4.3870    0.2318   -1.2725 C   0  0  0  0  0  0  0  0  0  0  0  0
    0.4135   -0.2786    0.8806 H   0  0  0  0  0  0  0  0  0  0  0  0
    0.3545    0.1471   -0.9231 H   0  0  0  0  0  0  0  0  0  0  0  0
    2.8308   -0.2717    0.8564 H   0  0  0  0  0  0  0  0  0  0  0  0
    2.5040    0.4413   -2.1669 H   0  0  0  0  0  0  0  0  0  0  0  0
    4.9812    0.0238   -0.3885 H   0  0  0  0  0  0  0  0  0  0  0  0
    4.9211    0.4491   -2.1922 H   0  0  0  0  0  0  0  0  0  0  0  0
  1  2  2  0  0  0  0
  1  5  1  0  0  0  0
  1  6  1  0  0  0  0
  2  3  1  0  0  0  0
  2  7  1  0  0  0  0
  3  4  2  0  0  0  0
  3  8  1  0  0  0  0
  4  9  1  0  0  0  0
  4 10  1  0  0  0  0
M  END
$$$$

 OpenBabel12201709243D

 41 40  0  0  0  0  0  0  0  0999 V2000
    5.1513   -2.3666    1.6888 C   0  0  0  0  0  0  0  0  0  0  0  0
    4.5928   -1.2099    0.8644 C   0  0  0  0  0  0  0  0  0  0  0  0
    5.0420   -1.3112   -0.5970 C   0  0  0  0  0  0  0  0  0  0  0  0
    4.4910   -0.1562   -1.4295 C   0  0  0  0  0  0  0  0  0  0  0  0
    5.1490   -0.3579   -3.4632 Sn  0  0  0  0  0  0  0  0  0  0  0  0
    4.4488   -2.2280   -4.2450 C   0  0  0  0  0  0  0  0  0  0  0  0
    2.9236   -2.2729   -4.2056 C   0  0  0  0  0  0  0  0  0  0  0  0
    2.4003   -3.6011   -4.7618 C   0  0  0  0  0  0  0  0  0  0  0  0
    0.8759   -3.6514   -4.7260 C   0  0  0  0  0  0  0  0  0  0  0  0
    4.4290    1.1064   -4.5602 O   0  0  0  0  0  0  0  0  0  0  0  0
    4.6919    2.4128   -4.3327 C   0  0  0  0  0  0  0  0  0  0  0  0
    5.4116    2.7547   -3.4062 O   0  0  0  0  0  0  0  0  0  0  0  0
    4.0961    3.4518   -5.2271 C   0  0  0  0  0  0  0  0  0  0  0  0
    7.1144   -0.3302   -3.5201 O   0  0  0  0  0  0  0  0  0  0  0  0
    7.8284   -0.4504   -4.6629 C   0  0  0  0  0  0  0  0  0  0  0  0
    7.2671   -0.5672   -5.7420 O   0  0  0  0  0  0  0  0  0  0  0  0
    9.3218   -0.4439   -4.6061 C   0  0  0  0  0  0  0  0  0  0  0  0
    4.8117   -2.2736    2.7418 H   0  0  0  0  0  0  0  0  0  0  0  0
    6.2621   -2.3520    1.6710 H   0  0  0  0  0  0  0  0  0  0  0  0
    4.7935   -3.3374    1.2842 H   0  0  0  0  0  0  0  0  0  0  0  0
    4.9505   -0.2519    1.3012 H   0  0  0  0  0  0  0  0  0  0  0  0
    3.4824   -1.2339    0.9170 H   0  0  0  0  0  0  0  0  0  0  0  0
    4.6808   -2.2707   -1.0275 H   0  0  0  0  0  0  0  0  0  0  0  0
    6.1527   -1.2918   -0.6448 H   0  0  0  0  0  0  0  0  0  0  0  0
    4.8545    0.8150   -1.0313 H   0  0  0  0  0  0  0  0  0  0  0  0
    3.3803   -0.1649   -1.4134 H   0  0  0  0  0  0  0  0  0  0  0  0
    4.8746   -3.0492   -3.6303 H   0  0  0  0  0  0  0  0  0  0  0  0
    4.8098   -2.3296   -5.2905 H   0  0  0  0  0  0  0  0  0  0  0  0
    2.5210   -1.4319   -4.8117 H   0  0  0  0  0  0  0  0  0  0  0  0
    2.5845   -2.1515   -3.1535 H   0  0  0  0  0  0  0  0  0  0  0  0
    2.8015   -4.4431   -4.1564 H   0  0  0  0  0  0  0  0  0  0  0  0
    2.7386   -3.7248   -5.8138 H   0  0  0  0  0  0  0  0  0  0  0  0
    0.5107   -3.5513   -3.6817 H   0  0  0  0  0  0  0  0  0  0  0  0
    0.5263   -4.6233   -5.1335 H   0  0  0  0  0  0  0  0  0  0  0  0
    0.4480   -2.8326   -5.3429 H   0  0  0  0  0  0  0  0  0  0  0  0
    3.4732    2.9733   -6.0124 H   0  0  0  0  0  0  0  0  0  0  0  0
    4.9053    4.0340   -5.7156 H   0  0  0  0  0  0  0  0  0  0  0  0
    3.4586    4.1379   -4.6312 H   0  0  0  0  0  0  0  0  0  0  0  0
    9.6679   -0.3329   -3.5568 H   0  0  0  0  0  0  0  0  0  0  0  0
    9.7157    0.4029   -5.2065 H   0  0  0  0  0  0  0  0  0  0  0  0
    9.7157   -1.3978   -5.0154 H   0  0  0  0  0  0  0  0  0  0  0  0
  1  2  1  0  0  0  0
  1 18  1  0  0  0  0
  1 19  1  0  0  0  0
  1 20  1  0  0  0  0
  2  3  1  0  0  0  0
  2 21  1  0  0  0  0
  2 22  1  0  0  0  0
  3  4  1  0  0  0  0
  3 23  1  0  0  0  0
  3 24  1  0  0  0  0
  4  5  1  0  0  0  0
  4 25  1  0  0  0  0
  4 26  1  0  0  0  0
  5  6  1  0  0  0  0
  5 10  1  0  0  0  0
  5 14  1  0  0  0  0
  6  7  1  0  0  0  0
  6 27  1  0  0  0  0
  6 28  1  0  0  0  0
  7  8  1  0  0  0  0
  7 29  1  0  0  0  0
  7 30  1  0  0  0  0
  8  9  1  0  0  0  0
  8 31  1  0  0  0  0
  8 32  1  0  0  0  0
  9 33  1  0  0  0  0
  9 34  1  0  0  0  0
  9 35  1  0  0  0  0
 10 11  1  0  0  0  0
 11 12  2  0  0  0  0
 11 13  1  0  0  0  0
 13 36  1  0  0  0  0
 13 37  1  0  0  0  0
 13 38  1  0  0  0  0
 14 15  1  0  0  0  0
 15 16  2  0  0  0  0
 15 17  1  0  0  0  0
 17 39  1  0  0  0  0
 17 40  1  0  0  0  0
 17 41  1  0  0  0  0
M  END
$$$$

 OpenBabel12201709243D

  8  7  0  0  0  0  0  0  0  0999 V2000
    1.0054    0.0188    0.0747 C   0  0  0  0  0  0  0  0  0  0  0  0
    2.3426    0.0116    0.0827 C   0  0  0  0  0  0  0  0  0  0  0  0
    3.1090    0.8241   -0.8824 C   0  0  0  0  0  0  0  0  0  0  0  0
    4.3333    0.8240   -0.8832 O   0  0  0  0  0  0  0  0  0  0  0  0
    0.4513   -0.5829    0.7893 H   0  0  0  0  0  0  0  0  0  0  0  0
    0.4284    0.6111   -0.6286 H   0  0  0  0  0  0  0  0  0  0  0  0
    2.9195   -0.5794    0.7844 H   0  0  0  0  0  0  0  0  0  0  0  0
    2.5193    1.4245   -1.5948 H   0  0  0  0  0  0  0  0  0  0  0  0
  1  2  2  0  0  0  0
  1  5  1  0  0  0  0
  1  6  1  0  0  0  0
  2  3  1  0  0  0  0
  2  7  1  0  0  0  0
  3  4  2  0  0  0  0
  3  8  1  0  0  0  0
M  END
$$$$

 OpenBabel12201709243D

  9  8  0  0  0  0  0  0  0  0999 V2000
    1.7624    1.0132   -0.9481 Cl  0  0  0  0  0  0  0  0  0  0  0  0
    2.7596   -0.0167    0.0994 C   0  0  0  0  0  0  0  0  0  0  0  0
    3.3018   -1.1630   -0.6929 C   0  0  0  0  0  0  0  0  0  0  0  0
    4.6058   -1.4181   -0.8676 C   0  0  0  0  0  0  0  0  0  0  0  0
    2.1287   -0.3847    0.9136 H   0  0  0  0  0  0  0  0  0  0  0  0
    3.5521    0.6051    0.5262 H   0  0  0  0  0  0  0  0  0  0  0  0
    2.5712   -1.8295   -1.1467 H   0  0  0  0  0  0  0  0  0  0  0  0
    5.3771   -0.7857   -0.4387 H   0  0  0  0  0  0  0  0  0  0  0  0
    4.9292   -2.2709   -1.4573 H   0  0  0  0  0  0  0  0  0  0  0  0
  1  2  1  0  0  0  0
  2  3  1  0  0  0  0
  2  5  1  0  0  0  0
  2  6  1  0  0  0  0
  3  4  2  0  0  0  0
  3  7  1  0  0  0  0
  4  8  1  0  0  0  0
  4  9  1  0  0  0  0
M  END
$$$$

 OpenBabel12201709243D

  8  7  0  0  0  0  0  0  0  0999 V2000
    1.0633    0.0456   -0.0301 Cl  0  0  0  0  0  0  0  0  0  0  0  0
    2.8443    0.0524   -0.0590 C   0  0  0  0  0  0  0  0  0  0  0  0
    3.3470    0.4316   -1.4392 C   0  0  0  0  0  0  0  0  0  0  0  0
    5.1280    0.4383   -1.4682 Cl  0  0  0  0  0  0  0  0  0  0  0  0
    3.1819   -0.9482    0.2279 H   0  0  0  0  0  0  0  0  0  0  0  0
    3.1830    0.7653    0.6990 H   0  0  0  0  0  0  0  0  0  0  0  0
    3.0094    1.4323   -1.7261 H   0  0  0  0  0  0  0  0  0  0  0  0
    3.0082   -0.2812   -2.1973 H   0  0  0  0  0  0  0  0  0  0  0  0
  1  2  1  0  0  0  0
  2  3  1  0  0  0  0
  2  5  1  0  0  0  0
  2  6  1  0  0  0  0
  3  4  1  0  0  0  0
  3  7  1  0  0  0  0
  3  8  1  0  0  0  0
M  END
$$$$

 OpenBabel12201709243D

  7  6  0  0  0  0  0  0  0  0999 V2000
    0.9863    0.0866   -0.0665 C   0  0  0  0  0  0  0  0  0  0  0  0
    2.3237    0.0876   -0.0311 C   0  0  0  0  0  0  0  0  0  0  0  0
    3.0837    0.1277    1.2846 C   0  0  0  0  0  0  0  0  0  0  0  0
    3.7141    0.1608    2.3762 N   0  0  0  0  0  0  0  0  0  0  0  0
    0.4568    0.0578   -1.0136 H   0  0  0  0  0  0  0  0  0  0  0  0
    0.3903    0.1142    0.8416 H   0  0  0  0  0  0  0  0  0  0  0  0
    2.9275    0.0603   -0.9307 H   0  0  0  0  0  0  0  0  0  0  0  0
  1  2  2  0  0  0  0
  1  5  1  0  0  0  0
  1  6  1  0  0  0  0
  2  3  1  0  0  0  0
  2  7  1  0  0  0  0
  3  4  3  0  0  0  0
M  END
$$$$

 OpenBabel12201709243D

  7  6  0  0  0  0  0  0  0  0999 V2000
    1.0976    0.1416   -0.0327 Cl  0  0  0  0  0  0  0  0  0  0  0  0
    2.8667    0.0575    0.0098 C   0  0  0  0  0  0  0  0  0  0  0  0
    3.3739    0.0151   -1.4014 C   0  0  0  0  0  0  0  0  0  0  0  0
    4.2256   -0.7797   -1.7907 O   0  0  0  0  0  0  0  0  0  0  0  0
    3.1684   -0.8414    0.5525 H   0  0  0  0  0  0  0  0  0  0  0  0
    3.2517    0.9500    0.5085 H   0  0  0  0  0  0  0  0  0  0  0  0
    3.0025    0.8090   -2.0725 H   0  0  0  0  0  0  0  0  0  0  0  0
  1  2  1  0  0  0  0
  2  3  1  0  0  0  0
  2  5  1  0  0  0  0
  2  6  1  0  0  0  0
  3  4  2  0  0  0  0
  3  7  1  0  0  0  0
M  END
$$$$

 OpenBabel12201709243D

 10  9  0  0  0  0  0  0  0  0999 V2000
    0.9133   -0.1238    0.0344 O   0  0  0  0  0  0  0  0  0  0  0  0
    2.3403   -0.0612    0.0187 C   0  0  0  0  0  0  0  0  0  0  0  0
    2.8930   -1.3041    0.7059 C   0  0  0  0  0  0  0  0  0  0  0  0
    2.4569   -2.4696    0.0086 O   0  0  0  0  0  0  0  0  0  0  0  0
    0.5936    0.6756   -0.4209 H   0  0  0  0  0  0  0  0  0  0  0  0
    2.6617    0.8461    0.5379 H   0  0  0  0  0  0  0  0  0  0  0  0
    2.6606   -0.0238   -1.0270 H   0  0  0  0  0  0  0  0  0  0  0  0
    2.5251   -1.3787    1.7339 H   0  0  0  0  0  0  0  0  0  0  0  0
    3.9862   -1.2933    0.7161 H   0  0  0  0  0  0  0  0  0  0  0  0
    1.4920   -2.3531   -0.0949 H   0  0  0  0  0  0  0  0  0  0  0  0
  1  2  1  0  0  0  0
  1  5  1  0  0  0  0
  2  3  1  0  0  0  0
  2  6  1  0  0  0  0
  2  7  1  0  0  0  0
  3  4  1  0  0  0  0
  3  8  1  0  0  0  0
  3  9  1  0  0  0  0
  4 10  1  0  0  0  0
M  END
$$$$

 OpenBabel12201709243D

  9  8  0  0  0  0  0  0  0  0999 V2000
    1.1412   -0.0144   -0.0511 C   0  0  0  0  0  0  0  0  0  0  0  0
    2.6350   -0.0418   -0.1033 C   0  0  0  0  0  0  0  0  0  0  0  0
    3.2473   -0.5715   -1.1110 N   0  0  0  0  0  0  0  0  0  0  0  0
    4.6276   -0.4642   -0.9068 O   0  0  0  0  0  0  0  0  0  0  0  0
    0.8190    0.4714    0.8731 H   0  0  0  0  0  0  0  0  0  0  0  0
    0.7547   -1.0364   -0.0774 H   0  0  0  0  0  0  0  0  0  0  0  0
    0.7547    0.5435   -0.9078 H   0  0  0  0  0  0  0  0  0  0  0  0
    3.1804    0.4048    0.7465 H   0  0  0  0  0  0  0  0  0  0  0  0
    4.9902   -0.8856   -1.7086 H   0  0  0  0  0  0  0  0  0  0  0  0
  1  2  1  0  0  0  0
  1  5  1  0  0  0  0
  1  6  1  0  0  0  0
  1  7  1  0  0  0  0
  2  3  2  3  0  0  0
  2  8  1  0  0  0  0
  3  4  1  0  0  0  0
  4  9  1  0  0  0  0
M  END
$$$$

 OpenBabel12201709243D

  9  8  0  0  0  0  0  0  0  0999 V2000
    0.9542   -0.0624    0.0651 C   0  0  0  0  0  0  0  0  0  0  0  0
    2.3734   -0.0445    0.0851 O   0  0  0  0  0  0  0  0  0  0  0  0
    2.8665    0.8661    1.0561 C   0  0  0  0  0  0  0  0  0  0  0  0
    4.6363    0.8304    1.0204 Cl  0  0  0  0  0  0  0  0  0  0  0  0
    0.6288   -0.7761   -0.6965 H   0  0  0  0  0  0  0  0  0  0  0  0
    0.5614    0.9260   -0.1925 H   0  0  0  0  0  0  0  0  0  0  0  0
    0.5607   -0.3830    1.0346 H   0  0  0  0  0  0  0  0  0  0  0  0
    2.5388    0.5760    2.0589 H   0  0  0  0  0  0  0  0  0  0  0  0
    2.5404    1.8857    0.8299 H   0  0  0  0  0  0  0  0  0  0  0  0
  1  2  1  0  0  0  0
  1  5  1  0  0  0  0
  1  6  1  0  0  0  0
  1  7  1  0  0  0  0
  2  3  1  0  0  0  0
  3  4  1  0  0  0  0
  3  8  1  0  0  0  0
  3  9  1  0  0  0  0
M  END
$$$$

 OpenBabel12201709243D

 11 11  0  0  0  0  0  0  0  0999 V2000
    1.1108   -0.1930    0.5486 O   0  0  0  0  0  0  0  0  0  0  0  0
    2.4325   -0.0290   -0.0104 S   0  0  0  0  0  0  0  0  0  0  0  0
    2.6670    0.2133   -1.4168 O   0  0  0  0  0  0  0  0  0  0  0  0
    3.2152    1.1187    0.8429 O   0  0  0  0  0  0  0  0  0  0  0  0
    4.4649    0.5969    1.2884 C   0  0  0  0  0  0  0  0  0  0  0  0
    4.2261   -0.8960    1.4990 C   0  0  0  0  0  0  0  0  0  0  0  0
    3.3504   -1.2969    0.4466 O   0  0  0  0  0  0  0  0  0  0  0  0
    4.7868    1.0989    2.2039 H   0  0  0  0  0  0  0  0  0  0  0  0
    5.2047    0.7701    0.4998 H   0  0  0  0  0  0  0  0  0  0  0  0
    3.7218   -1.0841    2.4526 H   0  0  0  0  0  0  0  0  0  0  0  0
    5.1548   -1.4708    1.4605 H   0  0  0  0  0  0  0  0  0  0  0  0
  1  2  2  0  0  0  0
  2  3  2  0  0  0  0
  2  4  1  0  0  0  0
  2  7  1  0  0  0  0
  4  5  1  0  0  0  0
  5  6  1  0  0  0  0
  5  8  1  0  0  0  0
  5  9  1  0  0  0  0
  6  7  1  0  0  0  0
  6 10  1  0  0  0  0
  6 11  1  0  0  0  0
M  END
$$$$

 OpenBabel12201709243D

 17 16  0  0  0  0  0  0  0  0999 V2000
    0.9846    0.0215    0.1048 C   0  0  0  0  0  0  0  0  0  0  0  0
    2.4520    0.0314    0.0904 N   0  0  0  0  0  0  0  0  0  0  0  0
    2.9354   -1.1566   -0.6265 C   0  0  0  0  0  0  0  0  0  0  0  0
    2.9899    1.2480   -0.5643 C   0  0  0  0  0  0  0  0  0  0  0  0
    2.6705    2.5447    0.1971 C   0  0  0  0  0  0  0  0  0  0  0  0
    3.0930    2.4393    1.5532 O   0  0  0  0  0  0  0  0  0  0  0  0
    0.6142   -0.9109    0.5502 H   0  0  0  0  0  0  0  0  0  0  0  0
    0.5617    0.1149   -0.9002 H   0  0  0  0  0  0  0  0  0  0  0  0
    0.5911    0.8281    0.7303 H   0  0  0  0  0  0  0  0  0  0  0  0
    2.5621   -2.0729   -0.1555 H   0  0  0  0  0  0  0  0  0  0  0  0
    4.0290   -1.2102   -0.5914 H   0  0  0  0  0  0  0  0  0  0  0  0
    2.6228   -1.1594   -1.6778 H   0  0  0  0  0  0  0  0  0  0  0  0
    2.6402    1.3324   -1.6003 H   0  0  0  0  0  0  0  0  0  0  0  0
    4.0837    1.1566   -0.5893 H   0  0  0  0  0  0  0  0  0  0  0  0
    1.6004    2.7706    0.1834 H   0  0  0  0  0  0  0  0  0  0  0  0
    3.1961    3.3893   -0.2585 H   0  0  0  0  0  0  0  0  0  0  0  0
    2.9278    1.5061    1.7964 H   0  0  0  0  0  0  0  0  0  0  0  0
  1  2  1  0  0  0  0
  1  7  1  0  0  0  0
  1  8  1  0  0  0  0
  1  9  1  0  0  0  0
  2  3  1  0  0  0  0
  2  4  1  0  0  0  0
  3 10  1  0  0  0  0
  3 11  1  0  0  0  0
  3 12  1  0  0  0  0
  4  5  1  0  0  0  0
  4 13  1  0  0  0  0
  4 14  1  0  0  0  0
  5  6  1  0  0  0  0
  5 15  1  0  0  0  0
  5 16  1  0  0  0  0
  6 17  1  0  0  0  0
M  END
$$$$

 OpenBabel12201709243D

 14 13  0  0  0  0  0  0  0  0999 V2000
    0.9566    0.0350    0.0770 C   0  0  0  0  0  0  0  0  0  0  0  0
    2.4759   -0.0060    0.0672 C   0  0  0  0  0  0  0  0  0  0  0  0
    2.9870   -1.4203   -0.1606 C   0  0  0  0  0  0  0  0  0  0  0  0
    4.4585   -1.3584   -0.1654 N   0  0  0  0  0  0  0  0  0  0  0  0
    5.0701   -1.5157    0.8724 O   0  0  0  0  0  0  0  0  0  0  0  0
    5.1818   -1.1324   -1.3291 O   0  0  0  0  0  0  0  0  0  0  0  0
    0.6061    1.0572    0.2481 H   0  0  0  0  0  0  0  0  0  0  0  0
    0.5519   -0.6006    0.8710 H   0  0  0  0  0  0  0  0  0  0  0  0
    0.5496   -0.3080   -0.8797 H   0  0  0  0  0  0  0  0  0  0  0  0
    2.8540    0.3818    1.0211 H   0  0  0  0  0  0  0  0  0  0  0  0
    2.8517    0.6634   -0.7159 H   0  0  0  0  0  0  0  0  0  0  0  0
    2.6607   -1.8284   -1.1222 H   0  0  0  0  0  0  0  0  0  0  0  0
    2.6791   -2.1019    0.6383 H   0  0  0  0  0  0  0  0  0  0  0  0
    4.4858   -1.0386   -1.9941 H   0  0  0  0  0  0  0  0  0  0  0  0
  1  2  1  0  0  0  0
  1  7  1  0  0  0  0
  1  8  1  0  0  0  0
  1  9  1  0  0  0  0
  2  3  1  0  0  0  0
  2 10  1  0  0  0  0
  2 11  1  0  0  0  0
  3  4  1  0  0  0  0
  3 12  1  0  0  0  0
  3 13  1  0  0  0  0
  4  5  2  0  0  0  0
  4  6  1  0  0  0  0
  6 14  1  0  0  0  0
M  END
$$$$

 OpenBabel12201709243D

 12 11  0  0  0  0  0  0  0  0999 V2000
    1.0172   -0.0075    0.0622 C   0  0  0  0  0  0  0  0  0  0  0  0
    2.5110    0.0781   -0.0396 C   0  0  0  0  0  0  0  0  0  0  0  0
    3.1007    0.7688   -0.8608 O   0  0  0  0  0  0  0  0  0  0  0  0
    3.0752   -0.7274    0.9180 O   0  0  0  0  0  0  0  0  0  0  0  0
    4.4693   -0.7551    0.9511 C   0  0  0  0  0  0  0  0  0  0  0  0
    5.1292   -1.5014    1.8387 C   0  0  0  0  0  0  0  0  0  0  0  0
    0.5653    0.6336   -0.7003 H   0  0  0  0  0  0  0  0  0  0  0  0
    0.6917    0.3399    1.0459 H   0  0  0  0  0  0  0  0  0  0  0  0
    0.6917   -1.0363   -0.1112 H   0  0  0  0  0  0  0  0  0  0  0  0
    4.9657   -0.1357    0.2145 H   0  0  0  0  0  0  0  0  0  0  0  0
    4.6009   -2.1111    2.5637 H   0  0  0  0  0  0  0  0  0  0  0  0
    6.2138   -1.5143    1.8542 H   0  0  0  0  0  0  0  0  0  0  0  0
  1  2  1  0  0  0  0
  1  7  1  0  0  0  0
  1  8  1  0  0  0  0
  1  9  1  0  0  0  0
  2  3  2  0  0  0  0
  2  4  1  0  0  0  0
  4  5  1  0  0  0  0
  5  6  2  0  0  0  0
  5 10  1  0  0  0  0
  6 11  1  0  0  0  0
  6 12  1  0  0  0  0
M  END
$$$$

 OpenBabel12201709243D

 11 11  0  0  0  0  0  0  0  0999 V2000
    1.1743   -0.2220    0.3235 O   0  0  0  0  0  0  0  0  0  0  0  0
    2.3458   -0.1330   -0.0039 C   0  0  0  0  0  0  0  0  0  0  0  0
    3.1413    1.1268   -0.0118 C   0  0  0  0  0  0  0  0  0  0  0  0
    4.3346    0.7527   -0.8464 C   0  0  0  0  0  0  0  0  0  0  0  0
    4.3457   -0.7341   -0.7462 C   0  0  0  0  0  0  0  0  0  0  0  0
    5.2865   -1.4519   -1.0420 O   0  0  0  0  0  0  0  0  0  0  0  0
    3.1320   -1.1805   -0.3459 O   0  0  0  0  0  0  0  0  0  0  0  0
    3.4280    1.3702    1.0158 H   0  0  0  0  0  0  0  0  0  0  0  0
    2.5804    1.9525   -0.4560 H   0  0  0  0  0  0  0  0  0  0  0  0
    5.2557    1.1874   -0.4518 H   0  0  0  0  0  0  0  0  0  0  0  0
    4.1981    1.0351   -1.8948 H   0  0  0  0  0  0  0  0  0  0  0  0
  1  2  2  0  0  0  0
  2  3  1  0  0  0  0
  2  7  1  0  0  0  0
  3  4  1  0  0  0  0
  3  8  1  0  0  0  0
  3  9  1  0  0  0  0
  4  5  1  0  0  0  0
  4 10  1  0  0  0  0
  4 11  1  0  0  0  0
  5  6  2  0  0  0  0
  5  7  1  0  0  0  0
M  END
$$$$

 OpenBabel12201709243D

 16 16  0  0  0  0  0  0  0  0999 V2000
    1.0859    0.0090    0.1609 N   0  0  0  0  0  0  0  0  0  0  0  0
    2.4580   -0.0131   -0.1250 C   0  0  0  0  0  0  0  0  0  0  0  0
    3.1848    1.1779   -0.1595 C   0  0  0  0  0  0  0  0  0  0  0  0
    4.5732    1.1574   -0.2947 C   0  0  0  0  0  0  0  0  0  0  0  0
    5.2474   -0.0610   -0.3796 C   0  0  0  0  0  0  0  0  0  0  0  0
    4.5421   -1.2651   -0.3490 C   0  0  0  0  0  0  0  0  0  0  0  0
    5.2337   -2.4830   -0.2872 N   0  0  0  0  0  0  0  0  0  0  0  0
    3.1580   -1.2256   -0.1408 C   0  0  0  0  0  0  0  0  0  0  0  0
    0.6187    0.8515   -0.1587 H   0  0  0  0  0  0  0  0  0  0  0  0
    0.5979   -0.8339   -0.1246 H   0  0  0  0  0  0  0  0  0  0  0  0
    2.6768    2.1331   -0.0611 H   0  0  0  0  0  0  0  0  0  0  0  0
    5.1315    2.0894   -0.3077 H   0  0  0  0  0  0  0  0  0  0  0  0
    6.3315   -0.0621   -0.4507 H   0  0  0  0  0  0  0  0  0  0  0  0
    6.1353   -2.4611   -0.7531 H   0  0  0  0  0  0  0  0  0  0  0  0
    4.6744   -3.2816   -0.5695 H   0  0  0  0  0  0  0  0  0  0  0  0
    2.6153   -2.1555    0.0034 H   0  0  0  0  0  0  0  0  0  0  0  0
  1  2  1  0  0  0  0
  1  9  1  0  0  0  0
  1 10  1  0  0  0  0
  2  3  2  0  0  0  0
  2  8  1  0  0  0  0
  3  4  1  0  0  0  0
  3 11  1  0  0  0  0
  4  5  2  0  0  0  0
  4 12  1  0  0  0  0
  5  6  1  0  0  0  0
  5 13  1  0  0  0  0
  6  7  1  0  0  0  0
  6  8  2  0  0  0  0
  7 14  1  0  0  0  0
  7 15  1  0  0  0  0
  8 16  1  0  0  0  0
M  END
$$$$

 OpenBabel12201709243D

 14 14  0  0  0  0  0  0  0  0999 V2000
    0.9626   -0.1195    0.0903 O   0  0  0  0  0  0  0  0  0  0  0  0
    2.3210   -0.0950   -0.0335 C   0  0  0  0  0  0  0  0  0  0  0  0
    3.0208    1.1080   -0.0815 C   0  0  0  0  0  0  0  0  0  0  0  0
    4.4113    1.0890   -0.2146 C   0  0  0  0  0  0  0  0  0  0  0  0
    5.0910   -0.1284   -0.3017 C   0  0  0  0  0  0  0  0  0  0  0  0
    4.3708   -1.3199   -0.2519 C   0  0  0  0  0  0  0  0  0  0  0  0
    4.9970   -2.5290   -0.3390 O   0  0  0  0  0  0  0  0  0  0  0  0
    2.9879   -1.3122   -0.1148 C   0  0  0  0  0  0  0  0  0  0  0  0
    0.6348    0.7942    0.0999 H   0  0  0  0  0  0  0  0  0  0  0  0
    2.5064    2.0615   -0.0161 H   0  0  0  0  0  0  0  0  0  0  0  0
    4.9655    2.0232   -0.2514 H   0  0  0  0  0  0  0  0  0  0  0  0
    6.1715   -0.1276   -0.4063 H   0  0  0  0  0  0  0  0  0  0  0  0
    5.9474   -2.3787   -0.4669 H   0  0  0  0  0  0  0  0  0  0  0  0
    2.4351   -2.2446   -0.0747 H   0  0  0  0  0  0  0  0  0  0  0  0
  1  2  1  0  0  0  0
  1  9  1  0  0  0  0
  2  3  2  0  0  0  0
  2  8  1  0  0  0  0
  3  4  1  0  0  0  0
  3 10  1  0  0  0  0
  4  5  2  0  0  0  0
  4 11  1  0  0  0  0
  5  6  1  0  0  0  0
  5 12  1  0  0  0  0
  6  7  1  0  0  0  0
  6  8  2  0  0  0  0
  7 13  1  0  0  0  0
  8 14  1  0  0  0  0
M  END
$$$$

 OpenBabel12201709243D

 21 20  0  0  1  0  0  0  0  0999 V2000
    2.8238   -0.1999    1.4757 C   0  0  0  0  0  0  0  0  0  0  0  0
    2.6454   -0.0912   -0.0386 C   0  0  3  0  0  0  0  0  0  0  0  0
    1.1639   -0.0898   -0.4440 C   0  0  0  0  0  0  0  0  0  0  0  0
    0.3244   -1.6006   -0.0211 Cl  0  0  0  0  0  0  0  0  0  0  0  0
    3.1966    1.1381   -0.5340 O   0  0  0  0  0  0  0  0  0  0  0  0
    4.6142    1.3247   -0.4236 C   0  0  3  0  0  0  0  0  0  0  0  0
    5.4121    0.2383   -1.1419 C   0  0  0  0  0  0  0  0  0  0  0  0
    4.9555    2.7327   -0.9394 C   0  0  0  0  0  0  0  0  0  0  0  0
    4.6745    2.9288   -2.6914 Cl  0  0  0  0  0  0  0  0  0  0  0  0
    2.3468   -1.0951    1.8836 H   0  0  0  0  0  0  0  0  0  0  0  0
    2.4123    0.6811    1.9794 H   0  0  0  0  0  0  0  0  0  0  0  0
    3.8830   -0.2549    1.7454 H   0  0  0  0  0  0  0  0  0  0  0  0
    3.1350   -0.9361   -0.5352 H   0  0  0  0  0  0  0  0  0  0  0  0
    1.0697    0.0447   -1.5272 H   0  0  0  0  0  0  0  0  0  0  0  0
    0.6293    0.7433    0.0256 H   0  0  0  0  0  0  0  0  0  0  0  0
    4.8826    1.3191    0.6378 H   0  0  0  0  0  0  0  0  0  0  0  0
    4.9958    0.0187   -2.1302 H   0  0  0  0  0  0  0  0  0  0  0  0
    5.3837   -0.6968   -0.5724 H   0  0  0  0  0  0  0  0  0  0  0  0
    6.4639    0.5210   -1.2482 H   0  0  0  0  0  0  0  0  0  0  0  0
    6.0080    2.9671   -0.7522 H   0  0  0  0  0  0  0  0  0  0  0  0
    4.3363    3.4827   -0.4375 H   0  0  0  0  0  0  0  0  0  0  0  0
  1  2  1  0  0  0  0
  1 10  1  0  0  0  0
  1 11  1  0  0  0  0
  1 12  1  0  0  0  0
  2  3  1  0  0  0  0
  2  5  1  0  0  0  0
  2 13  1  0  0  0  0
  3  4  1  0  0  0  0
  3 14  1  0  0  0  0
  3 15  1  0  0  0  0
  5  6  1  0  0  0  0
  6  7  1  0  0  0  0
  6  8  1  0  0  0  0
  6 16  1  0  0  0  0
  7 17  1  0  0  0  0
  7 18  1  0  0  0  0
  7 19  1  0  0  0  0
  8  9  1  0  0  0  0
  8 20  1  0  0  0  0
  8 21  1  0  0  0  0
M  END
$$$$

 OpenBabel12201709243D

 15 15  0  0  0  0  0  0  0  0999 V2000
    1.1417   -0.0592    0.1632 N   0  0  0  0  0  0  0  0  0  0  0  0
    2.5181   -0.0315    0.0297 C   0  0  0  0  0  0  0  0  0  0  0  0
    3.0978    1.1541   -0.0485 N   0  0  0  0  0  0  0  0  0  0  0  0
    4.4111    1.1201   -0.1954 C   0  0  0  0  0  0  0  0  0  0  0  0
    5.0706    2.3310   -0.2796 N   0  0  0  0  0  0  0  0  0  0  0  0
    5.1443    0.0201   -0.2412 N   0  0  0  0  0  0  0  0  0  0  0  0
    4.4554   -1.1073   -0.1902 C   0  0  0  0  0  0  0  0  0  0  0  0
    5.1627   -2.2921   -0.2647 N   0  0  0  0  0  0  0  0  0  0  0  0
    3.1442   -1.1923   -0.0450 N   0  0  0  0  0  0  0  0  0  0  0  0
    0.7459    0.7946   -0.2060 H   0  0  0  0  0  0  0  0  0  0  0  0
    0.7807   -0.9276   -0.2065 H   0  0  0  0  0  0  0  0  0  0  0  0
    4.5190    3.0651    0.1423 H   0  0  0  0  0  0  0  0  0  0  0  0
    6.0304    2.2358    0.0179 H   0  0  0  0  0  0  0  0  0  0  0  0
    6.1165   -2.1562    0.0394 H   0  0  0  0  0  0  0  0  0  0  0  0
    4.6391   -3.0442    0.1603 H   0  0  0  0  0  0  0  0  0  0  0  0
  1  2  1  0  0  0  0
  1 10  1  0  0  0  0
  1 11  1  0  0  0  0
  2  3  2  0  0  0  0
  2  9  1  0  0  0  0
  3  4  1  0  0  0  0
  4  5  1  0  0  0  0
  4  6  2  0  0  0  0
  5 12  1  0  0  0  0
  5 13  1  0  0  0  0
  6  7  1  0  0  0  0
  7  8  1  0  0  0  0
  7  9  2  0  0  0  0
  8 14  1  0  0  0  0
  8 15  1  0  0  0  0
M  END
$$$$

 OpenBabel12201709243D

 15 15  0  0  0  0  0  0  0  0999 V2000
    1.0454   -0.0473    0.1242 C   0  0  0  0  0  0  0  0  0  0  0  0
    2.5426   -0.0199    0.0409 C   0  0  0  0  0  0  0  0  0  0  0  0
    3.2396    1.1933   -0.0056 C   0  0  0  0  0  0  0  0  0  0  0  0
    4.6330    1.2046   -0.0921 C   0  0  0  0  0  0  0  0  0  0  0  0
    5.3403    0.0045   -0.1353 C   0  0  0  0  0  0  0  0  0  0  0  0
    4.6551   -1.2082   -0.0923 C   0  0  0  0  0  0  0  0  0  0  0  0
    3.2621   -1.2209   -0.0056 C   0  0  0  0  0  0  0  0  0  0  0  0
    0.6300    0.9609    0.2239 H   0  0  0  0  0  0  0  0  0  0  0  0
    0.7254   -0.6270    0.9961 H   0  0  0  0  0  0  0  0  0  0  0  0
    0.6268   -0.4977   -0.7814 H   0  0  0  0  0  0  0  0  0  0  0  0
    2.7029    2.1386    0.0254 H   0  0  0  0  0  0  0  0  0  0  0  0
    5.1664    2.1508   -0.1266 H   0  0  0  0  0  0  0  0  0  0  0  0
    6.4248    0.0144   -0.2035 H   0  0  0  0  0  0  0  0  0  0  0  0
    5.2052   -2.1447   -0.1273 H   0  0  0  0  0  0  0  0  0  0  0  0
    2.7389   -2.1739    0.0255 H   0  0  0  0  0  0  0  0  0  0  0  0
  1  2  1  0  0  0  0
  1  8  1  0  0  0  0
  1  9  1  0  0  0  0
  1 10  1  0  0  0  0
  2  3  2  0  0  0  0
  2  7  1  0  0  0  0
  3  4  1  0  0  0  0
  3 11  1  0  0  0  0
  4  5  2  0  0  0  0
  4 12  1  0  0  0  0
  5  6  1  0  0  0  0
  5 13  1  0  0  0  0
  6  7  2  0  0  0  0
  6 14  1  0  0  0  0
  7 15  1  0  0  0  0
M  END
$$$$

 OpenBabel12201709243D

 12 12  0  0  0  0  0  0  0  0999 V2000
    1.1143    0.0105    0.1111 Cl  0  0  0  0  0  0  0  0  0  0  0  0
    2.8278    0.0293   -0.0467 C   0  0  0  0  0  0  0  0  0  0  0  0
    3.5037    1.2470   -0.1112 C   0  0  0  0  0  0  0  0  0  0  0  0
    4.8935    1.2614   -0.2392 C   0  0  0  0  0  0  0  0  0  0  0  0
    5.6006    0.0598   -0.3021 C   0  0  0  0  0  0  0  0  0  0  0  0
    4.9203   -1.1570   -0.2371 C   0  0  0  0  0  0  0  0  0  0  0  0
    3.5306   -1.1733   -0.1091 C   0  0  0  0  0  0  0  0  0  0  0  0
    2.9562    2.1842   -0.0625 H   0  0  0  0  0  0  0  0  0  0  0  0
    5.4249    2.2084   -0.2900 H   0  0  0  0  0  0  0  0  0  0  0  0
    6.6834    0.0717   -0.4019 H   0  0  0  0  0  0  0  0  0  0  0  0
    5.4725   -2.0922   -0.2862 H   0  0  0  0  0  0  0  0  0  0  0  0
    3.0039   -2.1222   -0.0588 H   0  0  0  0  0  0  0  0  0  0  0  0
  1  2  1  0  0  0  0
  2  3  2  0  0  0  0
  2  7  1  0  0  0  0
  3  4  1  0  0  0  0
  3  8  1  0  0  0  0
  4  5  2  0  0  0  0
  4  9  1  0  0  0  0
  5  6  1  0  0  0  0
  5 10  1  0  0  0  0
  6  7  2  0  0  0  0
  6 11  1  0  0  0  0
  7 12  1  0  0  0  0
M  END
$$$$

 OpenBabel12201709243D

 17 17  0  0  0  0  0  0  0  0999 V2000
    1.0023    0.0279    0.2819 O   0  0  0  0  0  0  0  0  0  0  0  0
    2.2173    0.0003    0.0958 C   0  0  0  0  0  0  0  0  0  0  0  0
    2.9888   -1.2993    0.0682 C   0  0  0  0  0  0  0  0  0  0  0  0
    3.9392   -1.3194   -1.1208 C   0  0  0  0  0  0  0  0  0  0  0  0
    4.8327   -0.0803   -1.1499 C   0  0  0  0  0  0  0  0  0  0  0  0
    3.9984    1.1997   -1.1672 C   0  0  0  0  0  0  0  0  0  0  0  0
    3.0385    1.2667    0.0132 C   0  0  0  0  0  0  0  0  0  0  0  0
    2.2856   -2.1358    0.0024 H   0  0  0  0  0  0  0  0  0  0  0  0
    3.5379   -1.3874    1.0116 H   0  0  0  0  0  0  0  0  0  0  0  0
    3.3591   -1.3657   -2.0511 H   0  0  0  0  0  0  0  0  0  0  0  0
    4.5588   -2.2222   -1.0823 H   0  0  0  0  0  0  0  0  0  0  0  0
    5.4746   -0.1118   -2.0375 H   0  0  0  0  0  0  0  0  0  0  0  0
    5.4925   -0.0798   -0.2740 H   0  0  0  0  0  0  0  0  0  0  0  0
    3.4281    1.2429   -2.1036 H   0  0  0  0  0  0  0  0  0  0  0  0
    4.6604    2.0727   -1.1540 H   0  0  0  0  0  0  0  0  0  0  0  0
    2.3684    2.1257   -0.0977 H   0  0  0  0  0  0  0  0  0  0  0  0
    3.5842    1.3791    0.9562 H   0  0  0  0  0  0  0  0  0  0  0  0
  1  2  2  0  0  0  0
  2  3  1  0  0  0  0
  2  7  1  0  0  0  0
  3  4  1  0  0  0  0
  3  8  1  0  0  0  0
  3  9  1  0  0  0  0
  4  5  1  0  0  0  0
  4 10  1  0  0  0  0
  4 11  1  0  0  0  0
  5  6  1  0  0  0  0
  5 12  1  0  0  0  0
  5 13  1  0  0  0  0
  6  7  1  0  0  0  0
  6 14  1  0  0  0  0
  6 15  1  0  0  0  0
  7 16  1  0  0  0  0
  7 17  1  0  0  0  0
M  END
$$$$

 OpenBabel12201709243D

 13 13  0  0  0  0  0  0  0  0999 V2000
    0.9739   -0.1097    0.1169 O   0  0  0  0  0  0  0  0  0  0  0  0
    2.3299   -0.0396   -0.0093 C   0  0  0  0  0  0  0  0  0  0  0  0
    2.9890    1.1845   -0.0798 C   0  0  0  0  0  0  0  0  0  0  0  0
    4.3786    1.2079   -0.2118 C   0  0  0  0  0  0  0  0  0  0  0  0
    5.0964    0.0121   -0.2717 C   0  0  0  0  0  0  0  0  0  0  0  0
    4.4260   -1.2095   -0.1989 C   0  0  0  0  0  0  0  0  0  0  0  0
    3.0378   -1.2349   -0.0668 C   0  0  0  0  0  0  0  0  0  0  0  0
    0.6189    0.7940    0.1279 H   0  0  0  0  0  0  0  0  0  0  0  0
    2.4439    2.1217   -0.0338 H   0  0  0  0  0  0  0  0  0  0  0  0
    4.9034    2.1580   -0.2681 H   0  0  0  0  0  0  0  0  0  0  0  0
    6.1784    0.0319   -0.3754 H   0  0  0  0  0  0  0  0  0  0  0  0
    4.9833   -2.1412   -0.2454 H   0  0  0  0  0  0  0  0  0  0  0  0
    2.5099   -2.1825   -0.0097 H   0  0  0  0  0  0  0  0  0  0  0  0
  1  2  1  0  0  0  0
  1  8  1  0  0  0  0
  2  3  2  0  0  0  0
  2  7  1  0  0  0  0
  3  4  1  0  0  0  0
  3  9  1  0  0  0  0
  4  5  2  0  0  0  0
  4 10  1  0  0  0  0
  5  6  1  0  0  0  0
  5 11  1  0  0  0  0
  6  7  2  0  0  0  0
  6 12  1  0  0  0  0
  7 13  1  0  0  0  0
M  END
$$$$

 OpenBabel12201709243D

 14 13  0  0  0  0  0  0  0  0999 V2000
    0.8999    0.0617   -0.0109 C   0  0  0  0  0  0  0  0  0  0  0  0
    2.4202    0.0560   -0.0293 C   0  0  0  0  0  0  0  0  0  0  0  0
    2.9626   -0.3694   -1.3937 C   0  0  0  0  0  0  0  0  0  0  0  0
    4.4855   -0.3718   -1.4014 C   0  0  0  0  0  0  0  0  0  0  0  0
    5.0974   -0.8688   -2.9958 Cl  0  0  0  0  0  0  0  0  0  0  0  0
    0.5339    0.3687    0.9738 H   0  0  0  0  0  0  0  0  0  0  0  0
    0.5012   -0.9348   -0.2260 H   0  0  0  0  0  0  0  0  0  0  0  0
    0.5012    0.7595   -0.7542 H   0  0  0  0  0  0  0  0  0  0  0  0
    2.7865   -0.6266    0.7464 H   0  0  0  0  0  0  0  0  0  0  0  0
    2.7865    1.0584    0.2210 H   0  0  0  0  0  0  0  0  0  0  0  0
    2.5877    0.3145   -2.1653 H   0  0  0  0  0  0  0  0  0  0  0  0
    2.5877   -1.3707   -1.6398 H   0  0  0  0  0  0  0  0  0  0  0  0
    4.8834   -1.0713   -0.6601 H   0  0  0  0  0  0  0  0  0  0  0  0
    4.8833    0.6251   -1.1890 H   0  0  0  0  0  0  0  0  0  0  0  0
  1  2  1  0  0  0  0
  1  6  1  0  0  0  0
  1  7  1  0  0  0  0
  1  8  1  0  0  0  0
  2  3  1  0  0  0  0
  2  9  1  0  0  0  0
  2 10  1  0  0  0  0
  3  4  1  0  0  0  0
  3 11  1  0  0  0  0
  3 12  1  0  0  0  0
  4  5  1  0  0  0  0
  4 13  1  0  0  0  0
  4 14  1  0  0  0  0
M  END
$$$$

 OpenBabel12201709243D

 13 12  0  0  0  0  0  0  0  0999 V2000
    2.7932    1.3593   -0.3661 N   0  0  0  0  0  0  0  0  0  0  0  0
    2.4293    0.0559    0.1314 N   0  0  0  0  0  0  0  0  0  0  0  0
    2.9271   -0.9908   -0.7849 C   0  0  0  0  0  0  0  0  0  0  0  0
    4.4579   -1.0892   -0.7938 C   0  0  0  0  0  0  0  0  0  0  0  0
    4.9455   -1.2651    0.5354 O   0  0  0  0  0  0  0  0  0  0  0  0
    2.6222    2.0868    0.3352 H   0  0  0  0  0  0  0  0  0  0  0  0
    2.2558    1.6329   -1.1935 H   0  0  0  0  0  0  0  0  0  0  0  0
    1.4144   -0.0543    0.2312 H   0  0  0  0  0  0  0  0  0  0  0  0
    2.5415   -0.8427   -1.8010 H   0  0  0  0  0  0  0  0  0  0  0  0
    2.5278   -1.9443   -0.4190 H   0  0  0  0  0  0  0  0  0  0  0  0
    4.9203   -0.1910   -1.2149 H   0  0  0  0  0  0  0  0  0  0  0  0
    4.7799   -1.9477   -1.3907 H   0  0  0  0  0  0  0  0  0  0  0  0
    4.4734   -0.5753    1.0472 H   0  0  0  0  0  0  0  0  0  0  0  0
  1  2  1  0  0  0  0
  1  6  1  0  0  0  0
  1  7  1  0  0  0  0
  2  3  1  0  0  0  0
  2  8  1  0  0  0  0
  3  4  1  0  0  0  0
  3  9  1  0  0  0  0
  3 10  1  0  0  0  0
  4  5  1  0  0  0  0
  4 11  1  0  0  0  0
  4 12  1  0  0  0  0
  5 13  1  0  0  0  0
M  END
$$$$

 OpenBabel12201709243D

  9  9  0  0  0  0  0  0  0  0999 V2000
   -1.2023   -0.0024   -0.0003 C   0  0  0  0  0  0  0  0  0  0  0  0
   -0.3691    1.1425   -0.0009 C   0  0  0  0  0  0  0  0  0  0  0  0
    0.9243    0.6744    0.0030 C   0  0  0  0  0  0  0  0  0  0  0  0
    0.9373   -0.6837    0.0060 O   0  0  0  0  0  0  0  0  0  0  0  0
   -0.3590   -1.0891    0.0040 C   0  0  0  0  0  0  0  0  0  0  0  0
   -2.2826   -0.0337   -0.0026 H   0  0  0  0  0  0  0  0  0  0  0  0
   -0.6715    2.1801   -0.0039 H   0  0  0  0  0  0  0  0  0  0  0  0
    1.8948    1.1506    0.0041 H   0  0  0  0  0  0  0  0  0  0  0  0
   -0.5137   -2.1590    0.0060 H   0  0  0  0  0  0  0  0  0  0  0  0
  1  2  1  0  0  0  0
  1  5  2  0  0  0  0
  1  6  1  0  0  0  0
  2  3  2  0  0  0  0
  2  7  1  0  0  0  0
  3  4  1  0  0  0  0
  3  8  1  0  0  0  0
  4  5  1  0  0  0  0
  5  9  1  0  0  0  0
M  END
$$$$

 OpenBabel12201709243D

 16 16  0  0  0  0  0  0  0  0999 V2000
    0.7270    1.2064   -0.2285 C   0  0  0  0  0  0  0  0  0  0  0  0
   -0.7450    1.1970    0.2379 C   0  0  0  0  0  0  0  0  0  0  0  0
   -1.4809   -0.0001   -0.2099 N   0  0  0  0  0  0  0  0  0  0  0  0
   -0.7456   -1.1979    0.2374 C   0  0  0  0  0  0  0  0  0  0  0  0
    0.7264   -1.2079   -0.2291 C   0  0  0  0  0  0  0  0  0  0  0  0
    1.4620   -0.0010    0.1730 N   0  0  0  0  0  0  0  0  0  0  0  0
    1.2313    2.0825    0.1932 H   0  0  0  0  0  0  0  0  0  0  0  0
    0.7641    1.3078   -1.3205 H   0  0  0  0  0  0  0  0  0  0  0  0
   -1.2529    2.0859   -0.1523 H   0  0  0  0  0  0  0  0  0  0  0  0
   -0.7913    1.2626    1.3321 H   0  0  0  0  0  0  0  0  0  0  0  0
   -1.4897    0.0001   -1.2294 H   0  0  0  0  0  0  0  0  0  0  0  0
   -1.2540   -2.0864   -0.1531 H   0  0  0  0  0  0  0  0  0  0  0  0
   -0.7920   -1.2639    1.3316 H   0  0  0  0  0  0  0  0  0  0  0  0
    0.7634   -1.3088   -1.3211 H   0  0  0  0  0  0  0  0  0  0  0  0
    1.2302   -2.0845    0.1923 H   0  0  0  0  0  0  0  0  0  0  0  0
    2.3843   -0.0012   -0.2594 H   0  0  0  0  0  0  0  0  0  0  0  0
  1  2  1  0  0  0  0
  1  6  1  0  0  0  0
  1  7  1  0  0  0  0
  1  8  1  0  0  0  0
  2  3  1  0  0  0  0
  2  9  1  0  0  0  0
  2 10  1  0  0  0  0
  3  4  1  0  0  0  0
  3 11  1  0  0  0  0
  4  5  1  0  0  0  0
  4 12  1  0  0  0  0
  4 13  1  0  0  0  0
  5  6  1  0  0  0  0
  5 14  1  0  0  0  0
  5 15  1  0  0  0  0
  6 16  1  0  0  0  0
M  END
$$$$

 OpenBabel12201709243D

 24 23  0  0  1  0  0  0  0  0999 V2000
    0.8526   -0.0063    0.1516 C   0  0  0  0  0  0  0  0  0  0  0  0
    2.3748    0.0328    0.1417 C   0  0  3  0  0  0  0  0  0  0  0  0
    2.8671   -1.2207   -0.3498 O   0  0  0  0  0  0  0  0  0  0  0  0
    2.9026    1.1884   -0.7333 C   0  0  0  0  0  0  0  0  0  0  0  0
    4.3708    1.1979   -0.7118 N   0  0  0  0  0  0  0  0  0  0  0  0
    4.9188    2.2492   -1.5775 C   0  0  0  0  0  0  0  0  0  0  0  0
    6.4617    2.2615   -1.5701 C   0  0  3  0  0  0  0  0  0  0  0  0
    7.0584    2.5188   -0.1908 C   0  0  0  0  0  0  0  0  0  0  0  0
    6.9570    1.0167   -2.0719 O   0  0  0  0  0  0  0  0  0  0  0  0
    0.4978   -0.8301    0.7803 H   0  0  0  0  0  0  0  0  0  0  0  0
    0.4569   -0.1855   -0.8542 H   0  0  0  0  0  0  0  0  0  0  0  0
    0.4323    0.9294    0.5323 H   0  0  0  0  0  0  0  0  0  0  0  0
    2.7392    0.1477    1.1688 H   0  0  0  0  0  0  0  0  0  0  0  0
    2.5136   -1.3461   -1.2459 H   0  0  0  0  0  0  0  0  0  0  0  0
    2.5125    2.1426   -0.3617 H   0  0  0  0  0  0  0  0  0  0  0  0
    2.5575    1.0469   -1.7651 H   0  0  0  0  0  0  0  0  0  0  0  0
    4.6892    0.2791   -1.0262 H   0  0  0  0  0  0  0  0  0  0  0  0
    4.5535    3.2296   -1.2496 H   0  0  0  0  0  0  0  0  0  0  0  0
    4.5771    2.0808   -2.6060 H   0  0  0  0  0  0  0  0  0  0  0  0
    6.8073    3.0420   -2.2570 H   0  0  0  0  0  0  0  0  0  0  0  0
    6.7839    1.7327    0.5209 H   0  0  0  0  0  0  0  0  0  0  0  0
    6.7318    3.4833    0.2090 H   0  0  0  0  0  0  0  0  0  0  0  0
    8.1525    2.5148   -0.2458 H   0  0  0  0  0  0  0  0  0  0  0  0
    6.7796    0.3520   -1.3826 H   0  0  0  0  0  0  0  0  0  0  0  0
  1  2  1  0  0  0  0
  1 10  1  0  0  0  0
  1 11  1  0  0  0  0
  1 12  1  0  0  0  0
  2  3  1  0  0  0  0
  2  4  1  0  0  0  0
  2 13  1  0  0  0  0
  3 14  1  0  0  0  0
  4  5  1  0  0  0  0
  4 15  1  0  0  0  0
  4 16  1  0  0  0  0
  5  6  1  0  0  0  0
  5 17  1  0  0  0  0
  6  7  1  0  0  0  0
  6 18  1  0  0  0  0
  6 19  1  0  0  0  0
  7  8  1  0  0  0  0
  7  9  1  0  0  0  0
  7 20  1  0  0  0  0
  8 21  1  0  0  0  0
  8 22  1  0  0  0  0
  8 23  1  0  0  0  0
  9 24  1  0  0  0  0
M  END
$$$$

 OpenBabel12201709243D

 15 14  0  0  0  0  0  0  0  0999 V2000
    1.0839    0.0213   -0.0955 Cl  0  0  0  0  0  0  0  0  0  0  0  0
    2.8574    0.0668   -0.0098 C   0  0  0  0  0  0  0  0  0  0  0  0
    3.3221    0.7613    1.2617 C   0  0  0  0  0  0  0  0  0  0  0  0
    4.7533    0.7734    1.2845 O   0  0  0  0  0  0  0  0  0  0  0  0
    5.2547    1.4157    2.4614 C   0  0  0  0  0  0  0  0  0  0  0  0
    6.7755    1.3947    2.4220 C   0  0  0  0  0  0  0  0  0  0  0  0
    7.4581    2.1796    3.8617 Cl  0  0  0  0  0  0  0  0  0  0  0  0
    3.2340    0.5868   -0.8964 H   0  0  0  0  0  0  0  0  0  0  0  0
    3.2328   -0.9608   -0.0507 H   0  0  0  0  0  0  0  0  0  0  0  0
    2.9517    0.2266    2.1442 H   0  0  0  0  0  0  0  0  0  0  0  0
    2.9521    1.7929    1.2885 H   0  0  0  0  0  0  0  0  0  0  0  0
    4.8898    0.8821    3.3468 H   0  0  0  0  0  0  0  0  0  0  0  0
    4.8893    2.4489    2.4921 H   0  0  0  0  0  0  0  0  0  0  0  0
    7.1483    1.9151    1.5339 H   0  0  0  0  0  0  0  0  0  0  0  0
    7.1489    0.3666    2.3779 H   0  0  0  0  0  0  0  0  0  0  0  0
  1  2  1  0  0  0  0
  2  3  1  0  0  0  0
  2  8  1  0  0  0  0
  2  9  1  0  0  0  0
  3  4  1  0  0  0  0
  3 10  1  0  0  0  0
  3 11  1  0  0  0  0
  4  5  1  0  0  0  0
  5  6  1  0  0  0  0
  5 12  1  0  0  0  0
  5 13  1  0  0  0  0
  6  7  1  0  0  0  0
  6 14  1  0  0  0  0
  6 15  1  0  0  0  0
M  END
$$$$

 OpenBabel12201709243D

 17 16  0  0  0  0  0  0  0  0999 V2000
    1.0732   -0.0717    0.0254 O   0  0  0  0  0  0  0  0  0  0  0  0
    2.4946   -0.0987   -0.0032 C   0  0  0  0  0  0  0  0  0  0  0  0
    2.9794   -0.6892   -1.3224 C   0  0  0  0  0  0  0  0  0  0  0  0
    4.4079   -0.7026   -1.3468 O   0  0  0  0  0  0  0  0  0  0  0  0
    4.8943   -1.2723   -2.5704 C   0  0  0  0  0  0  0  0  0  0  0  0
    6.4188   -1.2318   -2.5498 C   0  0  0  0  0  0  0  0  0  0  0  0
    6.9111   -1.9976   -1.4518 O   0  0  0  0  0  0  0  0  0  0  0  0
    0.8155    0.3064    0.8841 H   0  0  0  0  0  0  0  0  0  0  0  0
    2.8583   -0.6965    0.8393 H   0  0  0  0  0  0  0  0  0  0  0  0
    2.8746    0.9207    0.1231 H   0  0  0  0  0  0  0  0  0  0  0  0
    2.5966   -0.0904   -2.1574 H   0  0  0  0  0  0  0  0  0  0  0  0
    2.5913   -1.7080   -1.4355 H   0  0  0  0  0  0  0  0  0  0  0  0
    4.5160   -0.6989   -3.4230 H   0  0  0  0  0  0  0  0  0  0  0  0
    4.5483   -2.3097   -2.6360 H   0  0  0  0  0  0  0  0  0  0  0  0
    6.7812   -0.2071   -2.4273 H   0  0  0  0  0  0  0  0  0  0  0  0
    6.8312   -1.6489   -3.4732 H   0  0  0  0  0  0  0  0  0  0  0  0
    6.4031   -1.6887   -0.6769 H   0  0  0  0  0  0  0  0  0  0  0  0
  1  2  1  0  0  0  0
  1  8  1  0  0  0  0
  2  3  1  0  0  0  0
  2  9  1  0  0  0  0
  2 10  1  0  0  0  0
  3  4  1  0  0  0  0
  3 11  1  0  0  0  0
  3 12  1  0  0  0  0
  4  5  1  0  0  0  0
  5  6  1  0  0  0  0
  5 13  1  0  0  0  0
  5 14  1  0  0  0  0
  6  7  1  0  0  0  0
  6 15  1  0  0  0  0
  6 16  1  0  0  0  0
  7 17  1  0  0  0  0
M  END
$$$$

 OpenBabel12201709243D

 19 18  0  0  0  0  0  0  0  0999 V2000
    2.2729    0.3791    2.4245 O   0  0  0  0  0  0  0  0  0  0  0  0
    2.1674   -0.9471    1.9062 C   0  0  0  0  0  0  0  0  0  0  0  0
    2.9869   -1.0621    0.6107 C   0  0  0  0  0  0  0  0  0  0  0  0
    4.4263   -0.9620    0.9049 N   0  0  0  0  0  0  0  0  0  0  0  0
    5.2067   -0.1175   -0.0225 C   0  0  0  0  0  0  0  0  0  0  0  0
    4.6425    1.2825   -0.3231 C   0  0  0  0  0  0  0  0  0  0  0  0
    4.3422    2.0105    0.8620 O   0  0  0  0  0  0  0  0  0  0  0  0
    4.9357   -2.1342    1.2471 N   0  0  0  0  0  0  0  0  0  0  0  0
    6.1616   -2.2063    1.1127 O   0  0  0  0  0  0  0  0  0  0  0  0
    1.8648    0.3736    3.3084 H   0  0  0  0  0  0  0  0  0  0  0  0
    1.1119   -1.1436    1.6939 H   0  0  0  0  0  0  0  0  0  0  0  0
    2.5043   -1.6590    2.6687 H   0  0  0  0  0  0  0  0  0  0  0  0
    2.6439   -0.2644   -0.0543 H   0  0  0  0  0  0  0  0  0  0  0  0
    2.7513   -2.0031    0.0951 H   0  0  0  0  0  0  0  0  0  0  0  0
    5.3696   -0.6403   -0.9736 H   0  0  0  0  0  0  0  0  0  0  0  0
    6.1933    0.0623    0.4273 H   0  0  0  0  0  0  0  0  0  0  0  0
    3.7507    1.2448   -0.9556 H   0  0  0  0  0  0  0  0  0  0  0  0
    5.3932    1.8568   -0.8776 H   0  0  0  0  0  0  0  0  0  0  0  0
    3.7085    1.4812    1.3905 H   0  0  0  0  0  0  0  0  0  0  0  0
  1  2  1  0  0  0  0
  1 10  1  0  0  0  0
  2  3  1  0  0  0  0
  2 11  1  0  0  0  0
  2 12  1  0  0  0  0
  3  4  1  0  0  0  0
  3 13  1  0  0  0  0
  3 14  1  0  0  0  0
  4  5  1  0  0  0  0
  4  8  1  0  0  0  0
  5  6  1  0  0  0  0
  5 15  1  0  0  0  0
  5 16  1  0  0  0  0
  6  7  1  0  0  0  0
  6 17  1  0  0  0  0
  6 18  1  0  0  0  0
  7 19  1  0  0  0  0
  8  9  2  0  0  0  0
M  END
$$$$

 OpenBabel12201709243D

 13 13  0  0  0  0  0  0  0  0999 V2000
    1.1124   -0.2027    0.2819 O   0  0  0  0  0  0  0  0  0  0  0  0
    2.4929    0.0092   -0.0876 S   0  0  0  0  0  0  0  0  0  0  0  0
    2.9191    0.2530   -1.4483 O   0  0  0  0  0  0  0  0  0  0  0  0
    3.1999    1.2572    0.9723 C   0  0  0  0  0  0  0  0  0  0  0  0
    4.5692    0.7110    1.3134 C   0  0  0  0  0  0  0  0  0  0  0  0
    4.3493   -0.7787    1.5131 C   0  0  0  0  0  0  0  0  0  0  0  0
    3.4063   -1.1974    0.5310 O   0  0  0  0  0  0  0  0  0  0  0  0
    2.5700    1.3381    1.8630 H   0  0  0  0  0  0  0  0  0  0  0  0
    3.2354    2.2138    0.4477 H   0  0  0  0  0  0  0  0  0  0  0  0
    5.0146    1.1916    2.1883 H   0  0  0  0  0  0  0  0  0  0  0  0
    5.2414    0.8665    0.4609 H   0  0  0  0  0  0  0  0  0  0  0  0
    3.9358   -0.9906    2.5044 H   0  0  0  0  0  0  0  0  0  0  0  0
    5.2771   -1.3432    1.3879 H   0  0  0  0  0  0  0  0  0  0  0  0
  1  2  2  0  0  0  0
  2  3  2  0  0  0  0
  2  4  1  0  0  0  0
  2  7  1  0  0  0  0
  4  5  1  0  0  0  0
  4  8  1  0  0  0  0
  4  9  1  0  0  0  0
  5  6  1  0  0  0  0
  5 10  1  0  0  0  0
  5 11  1  0  0  0  0
  6  7  1  0  0  0  0
  6 12  1  0  0  0  0
  6 13  1  0  0  0  0
M  END
$$$$

 OpenBabel12201709243D

 21 21  0  0  0  0  0  0  0  0999 V2000
    1.5820    2.1454    0.3284 C   0  0  0  0  0  0  0  0  0  0  0  0
    2.5493    1.0445   -0.0148 C   0  0  0  0  0  0  0  0  0  0  0  0
    2.3612   -0.1345    0.2708 O   0  0  0  0  0  0  0  0  0  0  0  0
    3.6389    1.5092   -0.7313 N   0  0  0  0  0  0  0  0  0  0  0  0
    4.6445    0.5814   -1.0592 N   0  0  0  0  0  0  0  0  0  0  0  0
    5.1796    0.7766   -2.3586 C   0  0  0  0  0  0  0  0  0  0  0  0
    5.3846    2.0528   -2.9022 C   0  0  0  0  0  0  0  0  0  0  0  0
    5.9889    2.2197   -4.1513 C   0  0  0  0  0  0  0  0  0  0  0  0
    6.4253    1.1112   -4.8676 C   0  0  0  0  0  0  0  0  0  0  0  0
    6.2692   -0.1636   -4.3284 C   0  0  0  0  0  0  0  0  0  0  0  0
    5.6659   -0.3269   -3.0750 C   0  0  0  0  0  0  0  0  0  0  0  0
    0.7990    1.7617    0.9875 H   0  0  0  0  0  0  0  0  0  0  0  0
    1.1225    2.5179   -0.5922 H   0  0  0  0  0  0  0  0  0  0  0  0
    2.0991    2.9647    0.8364 H   0  0  0  0  0  0  0  0  0  0  0  0
    3.9450    2.4681   -0.6123 H   0  0  0  0  0  0  0  0  0  0  0  0
    4.2981   -0.3781   -0.9301 H   0  0  0  0  0  0  0  0  0  0  0  0
    5.0902    2.9445   -2.3603 H   0  0  0  0  0  0  0  0  0  0  0  0
    6.1267    3.2191   -4.5559 H   0  0  0  0  0  0  0  0  0  0  0  0
    6.8982    1.2405   -5.8371 H   0  0  0  0  0  0  0  0  0  0  0  0
    6.6272   -1.0311   -4.8756 H   0  0  0  0  0  0  0  0  0  0  0  0
    5.5731   -1.3309   -2.6676 H   0  0  0  0  0  0  0  0  0  0  0  0
  1  2  1  0  0  0  0
  1 12  1  0  0  0  0
  1 13  1  0  0  0  0
  1 14  1  0  0  0  0
  2  3  2  0  0  0  0
  2  4  1  0  0  0  0
  4  5  1  0  0  0  0
  4 15  1  0  0  0  0
  5  6  1  0  0  0  0
  5 16  1  0  0  0  0
  6  7  2  0  0  0  0
  6 11  1  0  0  0  0
  7  8  1  0  0  0  0
  7 17  1  0  0  0  0
  8  9  2  0  0  0  0
  8 18  1  0  0  0  0
  9 10  1  0  0  0  0
  9 19  1  0  0  0  0
 10 11  2  0  0  0  0
 10 20  1  0  0  0  0
 11 21  1  0  0  0  0
M  END
$$$$

 OpenBabel12201709243D

 19 18  0  0  1  0  0  0  0  0999 V2000
    2.9559   -0.3186    1.4419 N   0  0  0  0  0  0  0  0  0  0  0  0
    2.5210   -0.0973    0.0258 C   0  0  3  0  0  0  0  0  0  0  0  0
    2.9913   -1.2007   -0.9283 C   0  0  0  0  0  0  0  0  0  0  0  0
    2.4959   -2.4767   -0.4863 O   0  0  0  0  0  0  0  0  0  0  0  0
    1.8243   -3.1871   -1.4200 C   0  0  0  0  0  0  0  0  0  0  0  0
    1.6340   -2.9249   -2.5856 O   0  0  0  0  0  0  0  0  0  0  0  0
    1.3662   -4.4431   -0.7755 C   0  0  0  0  0  0  0  0  0  0  0  0
    0.5898   -5.1963   -1.5162 N   0  0  0  0  0  0  0  0  0  0  0  0
   -0.0795   -5.8811   -2.1340 N   0  5  0  0  0  0  0  0  0  0  0  0
    0.9915    0.0301    0.0137 C   0  0  0  0  0  0  0  0  0  0  0  0
    0.2592   -0.2124   -0.9301 O   0  0  0  0  0  0  0  0  0  0  0  0
    0.5345    0.4778    1.2145 O   0  0  0  0  0  0  0  0  0  0  0  0
    3.9783   -0.3837    1.4494 H   0  0  0  0  0  0  0  0  0  0  0  0
    2.6536   -1.2649    1.7063 H   0  0  0  0  0  0  0  0  0  0  0  0
    2.9230    0.8671   -0.3032 H   0  0  0  0  0  0  0  0  0  0  0  0
    4.0869   -1.2586   -0.9141 H   0  0  0  0  0  0  0  0  0  0  0  0
    2.6925   -0.9607   -1.9546 H   0  0  0  0  0  0  0  0  0  0  0  0
    1.7009   -4.6862    0.2366 H   0  0  0  0  0  0  0  0  0  0  0  0
    1.3234    0.5501    1.8067 H   0  0  0  0  0  0  0  0  0  0  0  0
  1  2  1  0  0  0  0
  1 13  1  0  0  0  0
  1 14  1  0  0  0  0
  2  3  1  0  0  0  0
  2 10  1  0  0  0  0
  2 15  1  0  0  0  0
  3  4  1  0  0  0  0
  3 16  1  0  0  0  0
  3 17  1  0  0  0  0
  4  5  1  0  0  0  0
  5  6  2  0  0  0  0
  5  7  1  0  0  0  0
  7  8  2  0  0  0  0
  7 18  1  0  0  0  0
  8  9  2  0  0  0  0
 10 11  2  0  0  0  0
 10 12  1  0  0  0  0
 12 19  1  0  0  0  0
M  END
$$$$

 OpenBabel12201709243D

  9  8  0  0  0  0  0  0  0  0999 V2000
    0.9944   -0.0920   -0.0372 C   0  0  0  0  0  0  0  0  0  0  0  0
    2.4868   -0.1196   -0.0604 C   0  0  0  0  0  0  0  0  0  0  0  0
    3.1956   -0.9888   -0.7912 C   0  0  0  0  0  0  0  0  0  0  0  0
    0.6471    0.7026    0.6309 H   0  0  0  0  0  0  0  0  0  0  0  0
    0.5916   -1.0398    0.3329 H   0  0  0  0  0  0  0  0  0  0  0  0
    0.5916    0.1099   -1.0344 H   0  0  0  0  0  0  0  0  0  0  0  0
    3.0090    0.6105    0.5536 H   0  0  0  0  0  0  0  0  0  0  0  0
    2.7117   -1.7327   -1.4168 H   0  0  0  0  0  0  0  0  0  0  0  0
    4.2810   -0.9722   -0.7773 H   0  0  0  0  0  0  0  0  0  0  0  0
  1  2  1  0  0  0  0
  1  4  1  0  0  0  0
  1  5  1  0  0  0  0
  1  6  1  0  0  0  0
  2  3  2  0  0  0  0
  2  7  1  0  0  0  0
  3  8  1  0  0  0  0
  3  9  1  0  0  0  0
M  END
$$$$

 OpenBabel12201709243D

  6  5  0  0  0  0  0  0  0  0999 V2000
    1.0631    0.0734   -0.0251 C   0  0  0  0  0  0  0  0  0  0  0  0
    3.1431    0.0734   -0.0251 Hg  0  0  0  0  0  0  0  0  0  0  0  0
       nan       nan       nan Cl  0  0  0  0  0  0  0  0  0  0  0  0
    0.0000    0.0000    0.0000 H   0  0  0  0  0  0  0  0  0  0  0  0
    1.0407    0.3747   -1.0516 H   0  0  0  0  0  0  0  0  0  0  0  0
    1.0836   -0.1638    1.0181 H   0  0  0  0  0  0  0  0  0  0  0  0
  1  2  1  0  0  0  0
  1  4  1  0  0  0  0
  1  5  1  0  0  0  0
  1  6  1  0  0  0  0
  2  3  1  0  0  0  0
M  END
$$$$

 OpenBabel12201709243D

 23 24  0  0  1  0  0  0  0  0999 V2000
    2.4727   -1.3805   -0.0156 O   0  0  0  0  0  0  0  0  0  0  0  0
    2.0562   -0.1280    0.2086 C   0  0  0  0  0  0  0  0  0  0  0  0
    0.8699    0.1577    0.2050 O   0  0  0  0  0  0  0  0  0  0  0  0
    3.1612    0.7883    0.6517 C   0  0  3  0  0  0  0  0  0  0  0  0
    2.5724    2.1967    1.0068 C   0  0  3  0  0  0  0  0  0  0  0  0
    2.3564    2.3084    2.4854 C   0  0  0  0  0  0  0  0  0  0  0  0
    3.2215    2.6087    3.2856 O   0  0  0  0  0  0  0  0  0  0  0  0
    1.1142    1.9392    2.8655 O   0  0  0  0  0  0  0  0  0  0  0  0
    3.6020    3.1726    0.3706 C   0  0  3  0  0  0  0  0  0  0  0  0
    3.0502    4.8387    0.3126 Cl  0  0  0  0  0  0  0  0  0  0  0  0
    4.9893    2.9267    0.9318 C   0  0  0  0  0  0  0  0  0  0  0  0
    5.3970    1.7273    0.4940 C   0  0  0  0  0  0  0  0  0  0  0  0
    6.8568    0.9378    0.8198 Cl  0  0  0  0  0  0  0  0  0  0  0  0
    4.2825    1.1569   -0.3711 C   0  0  3  0  0  0  0  0  0  0  0  0
    4.7791   -0.0816   -1.5136 Cl  0  0  0  0  0  0  0  0  0  0  0  0
    3.7950    2.4904   -1.0253 C   0  0  0  0  0  0  0  0  0  0  0  0
    5.0043    3.3039   -2.0999 Cl  0  0  0  0  0  0  0  0  0  0  0  0
    2.3059    2.3209   -2.0205 Cl  0  0  0  0  0  0  0  0  0  0  0  0
    5.8503    4.0206    1.8959 Cl  0  0  0  0  0  0  0  0  0  0  0  0
    1.6748   -1.9238   -0.1960 H   0  0  0  0  0  0  0  0  0  0  0  0
    3.5863    0.3135    1.5490 H   0  0  0  0  0  0  0  0  0  0  0  0
    1.5967    2.3860    0.5413 H   0  0  0  0  0  0  0  0  0  0  0  0
    0.4922    1.6736    2.1531 H   0  0  0  0  0  0  0  0  0  0  0  0
  1  2  1  0  0  0  0
  1 20  1  0  0  0  0
  2  3  2  0  0  0  0
  2  4  1  0  0  0  0
  4  5  1  0  0  0  0
  4 14  1  0  0  0  0
  4 21  1  0  0  0  0
  5  6  1  0  0  0  0
  5  9  1  0  0  0  0
  5 22  1  0  0  0  0
  6  7  2  0  0  0  0
  6  8  1  0  0  0  0
  8 23  1  0  0  0  0
  9 10  1  0  0  0  0
  9 11  1  0  0  0  0
  9 16  1  0  0  0  0
 11 12  2  0  0  0  0
 11 19  1  0  0  0  0
 12 13  1  0  0  0  0
 12 14  1  0  0  0  0
 14 15  1  0  0  0  0
 14 16  1  0  0  0  0
 16 17  1  0  0  0  0
 16 18  1  0  0  0  0
M  END
$$$$

 OpenBabel12201709243D

 25 27  0  0  1  0  0  0  0  0999 V2000
    1.6608    1.1094    1.3556 Cl  0  0  0  0  0  0  0  0  0  0  0  0
    3.1921    1.0581    0.6333 C   0  0  0  0  0  0  0  0  0  0  0  0
    3.5548    0.4077   -0.4776 C   0  0  0  0  0  0  0  0  0  0  0  0
    2.5805   -0.5394   -1.4878 Cl  0  0  0  0  0  0  0  0  0  0  0  0
    5.0193    0.7212   -0.7322 C   0  0  3  0  0  0  0  0  0  0  0  0
    5.8838   -0.4077   -1.7616 Cl  0  0  0  0  0  0  0  0  0  0  0  0
    5.0977    2.2172   -1.2104 C   0  0  3  0  0  0  0  0  0  0  0  0
    4.4303    2.4600   -2.5694 C   0  0  0  0  0  0  0  0  0  0  0  0
    4.3810    3.8331   -2.9106 O   0  0  0  0  0  0  0  0  0  0  0  0
    3.0677    4.5935   -2.3865 S   0  0  3  0  0  0  0  0  0  0  0  0
    2.9267    5.8500   -3.1827 O   0  0  0  0  0  0  0  0  0  0  0  0
    3.6711    4.9968   -0.9513 O   0  0  0  0  0  0  0  0  0  0  0  0
    3.4899    4.0146    0.0506 C   0  0  0  0  0  0  0  0  0  0  0  0
    4.6420    3.0016    0.0932 C   0  0  3  0  0  0  0  0  0  0  0  0
    4.4048    1.8294    1.1193 C   0  0  3  0  0  0  0  0  0  0  0  0
    4.3775    2.3396    2.7984 Cl  0  0  0  0  0  0  0  0  0  0  0  0
    5.5194    0.8012    0.7456 C   0  0  0  0  0  0  0  0  0  0  0  0
    5.4341   -0.7608    1.6522 Cl  0  0  0  0  0  0  0  0  0  0  0  0
    7.1980    1.4066    0.9434 Cl  0  0  0  0  0  0  0  0  0  0  0  0
    6.1523    2.4918   -1.3637 H   0  0  0  0  0  0  0  0  0  0  0  0
    3.4424    1.9982   -2.6622 H   0  0  0  0  0  0  0  0  0  0  0  0
    5.0509    1.9854   -3.3404 H   0  0  0  0  0  0  0  0  0  0  0  0
    2.5020    3.5507   -0.0332 H   0  0  0  0  0  0  0  0  0  0  0  0
    3.4802    4.5599    1.0034 H   0  0  0  0  0  0  0  0  0  0  0  0
    5.5233    3.5816    0.4084 H   0  0  0  0  0  0  0  0  0  0  0  0
  1  2  1  0  0  0  0
  2  3  2  0  0  0  0
  2 15  1  0  0  0  0
  3  4  1  0  0  0  0
  3  5  1  0  0  0  0
  5  6  1  0  0  0  0
  5  7  1  0  0  0  0
  5 17  1  0  0  0  0
  7  8  1  0  0  0  0
  7 14  1  0  0  0  0
  7 20  1  0  0  0  0
  8  9  1  0  0  0  0
  8 21  1  0  0  0  0
  8 22  1  0  0  0  0
  9 10  1  0  0  0  0
 10 11  2  0  0  0  0
 10 12  1  0  0  0  0
 12 13  1  0  0  0  0
 13 14  1  0  0  0  0
 13 23  1  0  0  0  0
 13 24  1  0  0  0  0
 14 15  1  0  0  0  0
 14 25  1  0  0  0  0
 15 16  1  0  0  0  0
 15 17  1  0  0  0  0
 17 18  1  0  0  0  0
 17 19  1  0  0  0  0
M  END
$$$$

 OpenBabel12201709243D

 29 30  0  0  0  0  0  0  0  0999 V2000
    1.1199   -0.0181    0.2278 O   0  0  0  0  0  0  0  0  0  0  0  0
    2.5769   -0.0184    0.0691 C   0  0  0  0  0  0  0  0  0  0  0  0
    2.8906    1.4502   -0.3629 C   0  0  0  0  0  0  0  0  0  0  0  0
    1.8638    2.4095   -0.5261 C   0  0  0  0  0  0  0  0  0  0  0  0
    2.1391    3.7320   -0.8951 C   0  0  0  0  0  0  0  0  0  0  0  0
    3.4520    4.1330   -1.1127 C   0  0  0  0  0  0  0  0  0  0  0  0
    3.7922    5.7553   -1.5548 Cl  0  0  0  0  0  0  0  0  0  0  0  0
    4.4842    3.2128   -0.9841 C   0  0  0  0  0  0  0  0  0  0  0  0
    4.2044    1.8880   -0.6276 C   0  0  0  0  0  0  0  0  0  0  0  0
    3.0897   -0.3590    1.5080 C   0  0  0  0  0  0  0  0  0  0  0  0
    2.3329   -1.2001    2.3571 C   0  0  0  0  0  0  0  0  0  0  0  0
    2.7471   -1.5047    3.6594 C   0  0  0  0  0  0  0  0  0  0  0  0
    3.9511   -1.0058    4.1387 C   0  0  0  0  0  0  0  0  0  0  0  0
    4.4621   -1.3662    5.7397 Cl  0  0  0  0  0  0  0  0  0  0  0  0
    4.7439   -0.2193    3.3206 C   0  0  0  0  0  0  0  0  0  0  0  0
    4.3198    0.0976    2.0203 C   0  0  0  0  0  0  0  0  0  0  0  0
    2.9666   -1.1548   -1.0465 C   0  0  0  0  0  0  0  0  0  0  0  0
    1.5080   -2.0988   -1.6217 Cl  0  0  0  0  0  0  0  0  0  0  0  0
    3.7153   -0.5229   -2.5821 Cl  0  0  0  0  0  0  0  0  0  0  0  0
    4.1341   -2.4129   -0.4401 Cl  0  0  0  0  0  0  0  0  0  0  0  0
    0.9223    0.4341    1.0682 H   0  0  0  0  0  0  0  0  0  0  0  0
    0.8155    2.1507   -0.3910 H   0  0  0  0  0  0  0  0  0  0  0  0
    1.3210    4.4384   -1.0144 H   0  0  0  0  0  0  0  0  0  0  0  0
    5.5114    3.5170   -1.1661 H   0  0  0  0  0  0  0  0  0  0  0  0
    5.0483    1.2007   -0.5882 H   0  0  0  0  0  0  0  0  0  0  0  0
    1.3926   -1.6355    2.0126 H   0  0  0  0  0  0  0  0  0  0  0  0
    2.1228   -2.1356    4.2924 H   0  0  0  0  0  0  0  0  0  0  0  0
    5.6991    0.1582    3.6760 H   0  0  0  0  0  0  0  0  0  0  0  0
    5.0038    0.7057    1.4431 H   0  0  0  0  0  0  0  0  0  0  0  0
  1  2  1  0  0  0  0
  1 21  1  0  0  0  0
  2  3  1  0  0  0  0
  2 10  1  0  0  0  0
  2 17  1  0  0  0  0
  3  4  2  0  0  0  0
  3  9  1  0  0  0  0
  4  5  1  0  0  0  0
  4 22  1  0  0  0  0
  5  6  2  0  0  0  0
  5 23  1  0  0  0  0
  6  7  1  0  0  0  0
  6  8  1  0  0  0  0
  8  9  2  0  0  0  0
  8 24  1  0  0  0  0
  9 25  1  0  0  0  0
 10 11  2  0  0  0  0
 10 16  1  0  0  0  0
 11 12  1  0  0  0  0
 11 26  1  0  0  0  0
 12 13  2  0  0  0  0
 12 27  1  0  0  0  0
 13 14  1  0  0  0  0
 13 15  1  0  0  0  0
 15 16  2  0  0  0  0
 15 28  1  0  0  0  0
 16 29  1  0  0  0  0
 17 18  1  0  0  0  0
 17 19  1  0  0  0  0
 17 20  1  0  0  0  0
M  END
$$$$

 OpenBabel12201709243D

 26 25  0  0  0  0  0  0  0  0999 V2000
    6.8351   -1.0272   -1.3494 Cl  0  0  0  0  0  0  0  0  0  0  0  0
    5.8218    0.1410   -0.4626 C   0  0  0  0  0  0  0  0  0  0  0  0
    4.5018   -0.4893   -0.0303 C   0  0  0  0  0  0  0  0  0  0  0  0
    4.6332   -1.6719    0.7368 O   0  0  0  0  0  0  0  0  0  0  0  0
    5.4283   -1.6773    2.1332 P   0  0  0  0  0  0  0  0  0  0  0  0
    6.8336   -1.1774    2.0825 O   0  0  0  0  0  0  0  0  0  0  0  0
    4.4525   -0.8990    3.1439 O   0  0  0  0  0  0  0  0  0  0  0  0
    4.7463   -0.9055    4.5360 C   0  0  0  0  0  0  0  0  0  0  0  0
    6.0517   -0.2104    4.9197 C   0  0  0  0  0  0  0  0  0  0  0  0
    6.0584    1.4905    4.3903 Cl  0  0  0  0  0  0  0  0  0  0  0  0
    5.2995   -3.2234    2.5738 O   0  0  0  0  0  0  0  0  0  0  0  0
    6.0449   -4.1276    1.7657 C   0  0  0  0  0  0  0  0  0  0  0  0
    5.8879   -5.5569    2.2508 C   0  0  0  0  0  0  0  0  0  0  0  0
    6.6237   -5.7757    3.8587 Cl  0  0  0  0  0  0  0  0  0  0  0  0
    5.6321    0.9837   -1.1335 H   0  0  0  0  0  0  0  0  0  0  0  0
    6.3957    0.5140    0.3878 H   0  0  0  0  0  0  0  0  0  0  0  0
    3.9282   -0.7612   -0.9214 H   0  0  0  0  0  0  0  0  0  0  0  0
    3.8979    0.2349    0.5282 H   0  0  0  0  0  0  0  0  0  0  0  0
    4.7592   -1.9411    4.8911 H   0  0  0  0  0  0  0  0  0  0  0  0
    3.9108   -0.4088    5.0462 H   0  0  0  0  0  0  0  0  0  0  0  0
    6.9226   -0.7010    4.4817 H   0  0  0  0  0  0  0  0  0  0  0  0
    6.1780   -0.2156    6.0070 H   0  0  0  0  0  0  0  0  0  0  0  0
    7.1000   -3.8309    1.7653 H   0  0  0  0  0  0  0  0  0  0  0  0
    5.6718   -4.0593    0.7382 H   0  0  0  0  0  0  0  0  0  0  0  0
    6.3886   -6.2451    1.5636 H   0  0  0  0  0  0  0  0  0  0  0  0
    4.8334   -5.8342    2.3324 H   0  0  0  0  0  0  0  0  0  0  0  0
  1  2  1  0  0  0  0
  2  3  1  0  0  0  0
  2 15  1  0  0  0  0
  2 16  1  0  0  0  0
  3  4  1  0  0  0  0
  3 17  1  0  0  0  0
  3 18  1  0  0  0  0
  4  5  1  0  0  0  0
  5  6  2  0  0  0  0
  5  7  1  0  0  0  0
  5 11  1  0  0  0  0
  7  8  1  0  0  0  0
  8  9  1  0  0  0  0
  8 19  1  0  0  0  0
  8 20  1  0  0  0  0
  9 10  1  0  0  0  0
  9 21  1  0  0  0  0
  9 22  1  0  0  0  0
 11 12  1  0  0  0  0
 12 13  1  0  0  0  0
 12 23  1  0  0  0  0
 12 24  1  0  0  0  0
 13 14  1  0  0  0  0
 13 25  1  0  0  0  0
 13 26  1  0  0  0  0
M  END
$$$$

 OpenBabel12201709243D

 42 43  0  0  0  0  0  0  0  0999 V2000
    9.1008    4.0712   -4.2100 C   0  0  0  0  0  0  0  0  0  0  0  0
    8.6764    3.0459   -3.1986 C   0  0  0  0  0  0  0  0  0  0  0  0
    7.8895    1.9501   -3.5775 C   0  0  0  0  0  0  0  0  0  0  0  0
    7.4410    1.0364   -2.6221 C   0  0  0  0  0  0  0  0  0  0  0  0
    7.7887    1.2134   -1.2801 C   0  0  0  0  0  0  0  0  0  0  0  0
    8.5937    2.2856   -0.8899 C   0  0  0  0  0  0  0  0  0  0  0  0
    9.0334    3.2006   -1.8508 C   0  0  0  0  0  0  0  0  0  0  0  0
    7.1526    0.0827   -0.0724 S   0  0  0  0  0  0  0  0  0  0  0  0
    7.6300    0.4485    1.2427 O   0  0  0  0  0  0  0  0  0  0  0  0
    5.7336   -0.0569   -0.3271 O   0  0  0  0  0  0  0  0  0  0  0  0
    7.8218   -1.3829   -0.4920 N   0  0  0  0  0  0  0  0  0  0  0  0
    9.1894   -1.5638   -0.6307 C   0  0  0  0  0  0  0  0  0  0  0  0
    9.9849   -0.6646   -0.3968 O   0  0  0  0  0  0  0  0  0  0  0  0
    9.5380   -2.8237   -1.0867 N   0  0  0  0  0  0  0  0  0  0  0  0
   10.8891   -3.1886   -1.3751 N   0  0  0  0  0  0  0  0  0  0  0  0
   11.4049   -2.4066   -2.5141 C   0  0  0  0  0  0  0  0  0  0  0  0
   12.8544   -2.6579   -2.9443 C   0  0  0  0  0  0  0  0  0  0  0  0
   13.8748   -2.1516   -1.9304 C   0  0  0  0  0  0  0  0  0  0  0  0
   14.1840   -3.1409   -0.8129 C   0  0  0  0  0  0  0  0  0  0  0  0
   13.0006   -3.9522   -0.2963 C   0  0  0  0  0  0  0  0  0  0  0  0
   11.7114   -3.1476   -0.1543 C   0  0  0  0  0  0  0  0  0  0  0  0
    8.8087    3.7787   -5.2242 H   0  0  0  0  0  0  0  0  0  0  0  0
   10.1878    4.1970   -4.1982 H   0  0  0  0  0  0  0  0  0  0  0  0
    8.6239    5.0318   -3.9884 H   0  0  0  0  0  0  0  0  0  0  0  0
    7.6066    1.8122   -4.6189 H   0  0  0  0  0  0  0  0  0  0  0  0
    6.8126    0.2043   -2.9277 H   0  0  0  0  0  0  0  0  0  0  0  0
    8.8809    2.4185    0.1512 H   0  0  0  0  0  0  0  0  0  0  0  0
    9.6510    4.0424   -1.5417 H   0  0  0  0  0  0  0  0  0  0  0  0
    7.1470   -2.0631   -0.8152 H   0  0  0  0  0  0  0  0  0  0  0  0
    8.8454   -3.5624   -1.1076 H   0  0  0  0  0  0  0  0  0  0  0  0
   11.2943   -1.3302   -2.3385 H   0  0  0  0  0  0  0  0  0  0  0  0
   10.7708   -2.6360   -3.3814 H   0  0  0  0  0  0  0  0  0  0  0  0
   13.0120   -2.1044   -3.8793 H   0  0  0  0  0  0  0  0  0  0  0  0
   13.0187   -3.7149   -3.1820 H   0  0  0  0  0  0  0  0  0  0  0  0
   13.5329   -1.2017   -1.4993 H   0  0  0  0  0  0  0  0  0  0  0  0
   14.8143   -1.9207   -2.4475 H   0  0  0  0  0  0  0  0  0  0  0  0
   14.6294   -2.5848    0.0221 H   0  0  0  0  0  0  0  0  0  0  0  0
   14.9574   -3.8406   -1.1527 H   0  0  0  0  0  0  0  0  0  0  0  0
   13.2738   -4.3663    0.6824 H   0  0  0  0  0  0  0  0  0  0  0  0
   12.8338   -4.8222   -0.9449 H   0  0  0  0  0  0  0  0  0  0  0  0
   11.9247   -2.1231    0.1716 H   0  0  0  0  0  0  0  0  0  0  0  0
   11.1370   -3.6168    0.6559 H   0  0  0  0  0  0  0  0  0  0  0  0
  1  2  1  0  0  0  0
  1 22  1  0  0  0  0
  1 23  1  0  0  0  0
  1 24  1  0  0  0  0
  2  3  2  0  0  0  0
  2  7  1  0  0  0  0
  3  4  1  0  0  0  0
  3 25  1  0  0  0  0
  4  5  2  0  0  0  0
  4 26  1  0  0  0  0
  5  6  1  0  0  0  0
  5  8  1  0  0  0  0
  6  7  2  0  0  0  0
  6 27  1  0  0  0  0
  7 28  1  0  0  0  0
  8  9  2  0  0  0  0
  8 10  2  0  0  0  0
  8 11  1  0  0  0  0
 11 12  1  0  0  0  0
 11 29  1  0  0  0  0
 12 13  2  0  0  0  0
 12 14  1  0  0  0  0
 14 15  1  0  0  0  0
 14 30  1  0  0  0  0
 15 16  1  0  0  0  0
 15 21  1  0  0  0  0
 16 17  1  0  0  0  0
 16 31  1  0  0  0  0
 16 32  1  0  0  0  0
 17 18  1  0  0  0  0
 17 33  1  0  0  0  0
 17 34  1  0  0  0  0
 18 19  1  0  0  0  0
 18 35  1  0  0  0  0
 18 36  1  0  0  0  0
 19 20  1  0  0  0  0
 19 37  1  0  0  0  0
 19 38  1  0  0  0  0
 20 21  1  0  0  0  0
 20 39  1  0  0  0  0
 20 40  1  0  0  0  0
 21 41  1  0  0  0  0
 21 42  1  0  0  0  0
M  END
$$$$

 OpenBabel12201709243D

 26 25  0  0  0  0  0  0  0  0999 V2000
    2.5739   -0.2674    2.7915 C   0  0  0  0  0  0  0  0  0  0  0  0
    3.5208   -0.2612    1.7104 N   0  0  0  0  0  0  0  0  0  0  0  0
    4.1937   -1.4046    1.3668 C   0  0  0  0  0  0  0  0  0  0  0  0
    4.0379   -2.4773    1.9417 O   0  0  0  0  0  0  0  0  0  0  0  0
    5.0449   -1.1623    0.3123 O   0  0  0  0  0  0  0  0  0  0  0  0
    5.7270   -2.3490   -0.0065 N   0  0  0  0  0  0  0  0  0  0  0  0
    6.5092   -2.1752   -1.0199 C   0  0  0  0  0  0  0  0  0  0  0  0
    7.3495   -3.3280   -1.5544 C   0  0  0  0  0  0  0  0  0  0  0  0
    7.0577   -4.6453   -0.8261 C   0  0  0  0  0  0  0  0  0  0  0  0
    7.0330   -3.4928   -3.0452 C   0  0  0  0  0  0  0  0  0  0  0  0
    9.1327   -2.8644   -1.4141 S   0  0  0  0  0  0  0  0  0  0  0  0
    9.2986   -2.6456    0.3794 C   0  0  0  0  0  0  0  0  0  0  0  0
    2.1611    0.7359    2.9075 H   0  0  0  0  0  0  0  0  0  0  0  0
    3.0781   -0.5746    3.7125 H   0  0  0  0  0  0  0  0  0  0  0  0
    1.7740   -0.9789    2.5669 H   0  0  0  0  0  0  0  0  0  0  0  0
    3.7103    0.5769    1.1841 H   0  0  0  0  0  0  0  0  0  0  0  0
    6.6005   -1.1973   -1.5277 H   0  0  0  0  0  0  0  0  0  0  0  0
    6.0046   -4.9279   -0.9506 H   0  0  0  0  0  0  0  0  0  0  0  0
    7.2275   -4.5752    0.2534 H   0  0  0  0  0  0  0  0  0  0  0  0
    7.6647   -5.4693   -1.2154 H   0  0  0  0  0  0  0  0  0  0  0  0
    5.9653   -3.6971   -3.1942 H   0  0  0  0  0  0  0  0  0  0  0  0
    7.5900   -4.3274   -3.4873 H   0  0  0  0  0  0  0  0  0  0  0  0
    7.2617   -2.5866   -3.6196 H   0  0  0  0  0  0  0  0  0  0  0  0
   10.3282   -2.3479    0.5980 H   0  0  0  0  0  0  0  0  0  0  0  0
    9.1023   -3.5773    0.9136 H   0  0  0  0  0  0  0  0  0  0  0  0
    8.6358   -1.8563    0.7414 H   0  0  0  0  0  0  0  0  0  0  0  0
  1  2  1  0  0  0  0
  1 13  1  0  0  0  0
  1 14  1  0  0  0  0
  1 15  1  0  0  0  0
  2  3  1  0  0  0  0
  2 16  1  0  0  0  0
  3  4  2  0  0  0  0
  3  5  1  0  0  0  0
  5  6  1  0  0  0  0
  6  7  2  3  0  0  0
  7  8  1  0  0  0  0
  7 17  1  0  0  0  0
  8  9  1  0  0  0  0
  8 10  1  0  0  0  0
  8 11  1  0  0  0  0
  9 18  1  0  0  0  0
  9 19  1  0  0  0  0
  9 20  1  0  0  0  0
 10 21  1  0  0  0  0
 10 22  1  0  0  0  0
 10 23  1  0  0  0  0
 11 12  1  0  0  0  0
 12 24  1  0  0  0  0
 12 25  1  0  0  0  0
 12 26  1  0  0  0  0
M  END
$$$$

 OpenBabel12201709243D

 35 39  0  0  1  0  0  0  0  0999 V2000
    1.7606   -2.6309    0.9980 C   0  0  0  0  0  0  0  0  0  0  0  0
    2.7178   -1.5941    0.8256 O   0  0  0  0  0  0  0  0  0  0  0  0
    3.0512   -0.9327    1.9817 C   0  0  0  0  0  0  0  0  0  0  0  0
    2.9117    0.4846    1.8860 C   0  0  0  0  0  0  0  0  0  0  0  0
    3.4897    1.2988    2.8489 C   0  0  0  0  0  0  0  0  0  0  0  0
    3.6361    2.6618    2.7885 O   0  0  0  0  0  0  0  0  0  0  0  0
    4.5962    2.9924    3.8428 C   0  0  3  0  0  0  0  0  0  0  0  0
    4.0529    3.8471    4.8819 O   0  0  0  0  0  0  0  0  0  0  0  0
    4.3916    3.2094    6.0647 C   0  0  0  0  0  0  0  0  0  0  0  0
    4.9245    1.9943    5.9573 C   0  0  0  0  0  0  0  0  0  0  0  0
    5.0769    1.7094    4.5264 C   0  0  3  0  0  0  0  0  0  0  0  0
    4.1450    0.7408    3.9116 C   0  0  0  0  0  0  0  0  0  0  0  0
    4.2041   -0.6235    4.0641 C   0  0  0  0  0  0  0  0  0  0  0  0
    5.0512   -1.0525    5.0791 O   0  0  0  0  0  0  0  0  0  0  0  0
    6.1357   -1.5565    4.4037 C   0  0  0  0  0  0  0  0  0  0  0  0
    7.2878   -1.1688    4.5612 O   0  0  0  0  0  0  0  0  0  0  0  0
    5.7081   -2.7400    3.6768 C   0  0  0  0  0  0  0  0  0  0  0  0
    6.1598   -4.0807    4.0158 C   0  0  0  0  0  0  0  0  0  0  0  0
    7.3028   -4.3906    4.2988 O   0  0  0  0  0  0  0  0  0  0  0  0
    4.9646   -4.9623    4.0922 C   0  0  0  0  0  0  0  0  0  0  0  0
    3.9718   -4.2331    3.1588 C   0  0  0  0  0  0  0  0  0  0  0  0
    4.4543   -2.8136    3.1785 C   0  0  0  0  0  0  0  0  0  0  0  0
    3.7400   -1.5152    3.0735 C   0  0  0  0  0  0  0  0  0  0  0  0
    1.1416   -2.6756    0.0944 H   0  0  0  0  0  0  0  0  0  0  0  0
    1.0977   -2.4712    1.8544 H   0  0  0  0  0  0  0  0  0  0  0  0
    2.2793   -3.5868    1.0798 H   0  0  0  0  0  0  0  0  0  0  0  0
    2.4785    0.9357    0.9951 H   0  0  0  0  0  0  0  0  0  0  0  0
    5.4411    3.5212    3.3831 H   0  0  0  0  0  0  0  0  0  0  0  0
    4.1790    3.7557    6.9708 H   0  0  0  0  0  0  0  0  0  0  0  0
    5.2372    1.3515    6.7658 H   0  0  0  0  0  0  0  0  0  0  0  0
    6.1102    1.4760    4.2451 H   0  0  0  0  0  0  0  0  0  0  0  0
    4.6243   -4.9400    5.1378 H   0  0  0  0  0  0  0  0  0  0  0  0
    5.1988   -5.9805    3.7885 H   0  0  0  0  0  0  0  0  0  0  0  0
    2.9537   -4.3491    3.5405 H   0  0  0  0  0  0  0  0  0  0  0  0
    4.0350   -4.6637    2.1557 H   0  0  0  0  0  0  0  0  0  0  0  0
  1  2  1  0  0  0  0
  1 24  1  0  0  0  0
  1 25  1  0  0  0  0
  1 26  1  0  0  0  0
  2  3  1  0  0  0  0
  3  4  2  0  0  0  0
  3 23  1  0  0  0  0
  4  5  1  0  0  0  0
  4 27  1  0  0  0  0
  5  6  1  0  0  0  0
  5 12  2  0  0  0  0
  6  7  1  0  0  0  0
  7  8  1  0  0  0  0
  7 11  1  0  0  0  0
  7 28  1  0  0  0  0
  8  9  1  0  0  0  0
  9 10  2  0  0  0  0
  9 29  1  0  0  0  0
 10 11  1  0  0  0  0
 10 30  1  0  0  0  0
 11 12  1  0  0  0  0
 11 31  1  0  0  0  0
 12 13  1  0  0  0  0
 13 14  1  0  0  0  0
 13 23  2  0  0  0  0
 14 15  1  0  0  0  0
 15 16  2  0  0  0  0
 15 17  1  0  0  0  0
 17 18  1  0  0  0  0
 17 22  2  0  0  0  0
 18 19  2  0  0  0  0
 18 20  1  0  0  0  0
 20 21  1  0  0  0  0
 20 32  1  0  0  0  0
 20 33  1  0  0  0  0
 21 22  1  0  0  0  0
 21 34  1  0  0  0  0
 21 35  1  0  0  0  0
 22 23  1  0  0  0  0
M  END
$$$$

 OpenBabel12201709243D

 23 24  0  0  0  0  0  0  0  0999 V2000
    1.1261    0.9757    0.8445 Br  0  0  0  0  0  0  0  0  0  0  0  0
    2.9819    0.5202    0.6169 C   0  0  0  0  0  0  0  0  0  0  0  0
    3.9689    1.2542    1.3021 C   0  0  0  0  0  0  0  0  0  0  0  0
    3.4856    2.6874    2.4855 Br  0  0  0  0  0  0  0  0  0  0  0  0
    5.3242    0.9400    1.0975 C   0  0  0  0  0  0  0  0  0  0  0  0
    6.7163    1.9255    1.9962 Br  0  0  0  0  0  0  0  0  0  0  0  0
    5.7141   -0.0903    0.2054 C   0  0  0  0  0  0  0  0  0  0  0  0
    7.0743   -0.1473    0.0150 O   0  0  0  0  0  0  0  0  0  0  0  0
    7.8568   -1.2567   -0.1893 C   0  0  0  0  0  0  0  0  0  0  0  0
    8.8820   -1.0607   -1.1417 C   0  0  0  0  0  0  0  0  0  0  0  0
    8.9011    0.6033   -2.1111 Br  0  0  0  0  0  0  0  0  0  0  0  0
    9.8752   -2.0342   -1.3504 C   0  0  0  0  0  0  0  0  0  0  0  0
   11.2878   -1.7044   -2.6097 Br  0  0  0  0  0  0  0  0  0  0  0  0
    9.8348   -3.2299   -0.6106 C   0  0  0  0  0  0  0  0  0  0  0  0
   11.2180   -4.5477   -0.8482 Br  0  0  0  0  0  0  0  0  0  0  0  0
    8.8008   -3.4421    0.3358 C   0  0  0  0  0  0  0  0  0  0  0  0
    8.7313   -5.1000    1.3139 Br  0  0  0  0  0  0  0  0  0  0  0  0
    7.8243   -2.4415    0.5699 C   0  0  0  0  0  0  0  0  0  0  0  0
    6.5382   -2.6591    1.9724 Br  0  0  0  0  0  0  0  0  0  0  0  0
    4.7304   -0.8082   -0.4961 C   0  0  0  0  0  0  0  0  0  0  0  0
    5.2296   -2.0980   -1.8228 Br  0  0  0  0  0  0  0  0  0  0  0  0
    3.3609   -0.5213   -0.2645 C   0  0  0  0  0  0  0  0  0  0  0  0
    2.0003   -1.5474   -1.1608 Br  0  0  0  0  0  0  0  0  0  0  0  0
  1  2  1  0  0  0  0
  2  3  2  0  0  0  0
  2 22  1  0  0  0  0
  3  4  1  0  0  0  0
  3  5  1  0  0  0  0
  5  6  1  0  0  0  0
  5  7  2  0  0  0  0
  7  8  1  0  0  0  0
  7 20  1  0  0  0  0
  8  9  1  0  0  0  0
  9 10  2  0  0  0  0
  9 18  1  0  0  0  0
 10 11  1  0  0  0  0
 10 12  1  0  0  0  0
 12 13  1  0  0  0  0
 12 14  2  0  0  0  0
 14 15  1  0  0  0  0
 14 16  1  0  0  0  0
 16 17  1  0  0  0  0
 16 18  2  0  0  0  0
 18 19  1  0  0  0  0
 20 21  1  0  0  0  0
 20 22  2  0  0  0  0
 22 23  1  0  0  0  0
M  END
$$$$

 OpenBabel12201709243D

 32 34  0  0  0  0  0  0  0  0999 V2000
    1.0660    0.3399    0.0091 O   0  0  0  0  0  0  0  0  0  0  0  0
    2.4219    0.1855    0.0258 C   0  0  0  0  0  0  0  0  0  0  0  0
    2.9996   -1.0793    0.0389 C   0  0  0  0  0  0  0  0  0  0  0  0
    4.3910   -1.1871    0.0585 C   0  0  0  0  0  0  0  0  0  0  0  0
    4.9557   -2.4311    0.0700 O   0  0  0  0  0  0  0  0  0  0  0  0
    5.1949   -0.0373    0.0648 C   0  0  0  0  0  0  0  0  0  0  0  0
    6.6647   -0.0967    0.0880 C   0  0  0  0  0  0  0  0  0  0  0  0
    7.3334   -1.1234    0.1135 O   0  0  0  0  0  0  0  0  0  0  0  0
    7.3974    1.1924    0.0773 C   0  0  0  0  0  0  0  0  0  0  0  0
    8.7779    1.0828    0.0704 O   0  0  0  0  0  0  0  0  0  0  0  0
    6.7137    2.3505    0.0655 C   0  0  0  0  0  0  0  0  0  0  0  0
    5.3177    2.4004    0.0486 O   0  0  0  0  0  0  0  0  0  0  0  0
    4.6008    1.2256    0.0481 C   0  0  0  0  0  0  0  0  0  0  0  0
    3.2076    1.3358    0.0296 C   0  0  0  0  0  0  0  0  0  0  0  0
    7.3625    3.6967    0.0499 C   0  0  0  0  0  0  0  0  0  0  0  0
    8.6202    3.9318    0.6477 C   0  0  0  0  0  0  0  0  0  0  0  0
    9.2336    5.1918    0.6223 C   0  0  0  0  0  0  0  0  0  0  0  0
    8.5734    6.2485    0.0217 C   0  0  0  0  0  0  0  0  0  0  0  0
    9.1088    7.5063   -0.0200 O   0  0  0  0  0  0  0  0  0  0  0  0
    7.3237    6.0490   -0.5552 C   0  0  0  0  0  0  0  0  0  0  0  0
    6.6749    7.1022   -1.1370 O   0  0  0  0  0  0  0  0  0  0  0  0
    6.7184    4.7934   -0.5495 C   0  0  0  0  0  0  0  0  0  0  0  0
    0.6394   -0.5330    0.0086 H   0  0  0  0  0  0  0  0  0  0  0  0
    2.3788   -1.9686    0.0349 H   0  0  0  0  0  0  0  0  0  0  0  0
    4.2761   -3.1227    0.0452 H   0  0  0  0  0  0  0  0  0  0  0  0
    8.9423    0.1135    0.0932 H   0  0  0  0  0  0  0  0  0  0  0  0
    2.7330    2.3143    0.0182 H   0  0  0  0  0  0  0  0  0  0  0  0
    9.1545    3.1283    1.1492 H   0  0  0  0  0  0  0  0  0  0  0  0
   10.2123    5.3131    1.0756 H   0  0  0  0  0  0  0  0  0  0  0  0
    9.9664    7.4835    0.4372 H   0  0  0  0  0  0  0  0  0  0  0  0
    7.2812    7.8606   -1.0114 H   0  0  0  0  0  0  0  0  0  0  0  0
    5.7460    4.6846   -1.0222 H   0  0  0  0  0  0  0  0  0  0  0  0
  1  2  1  0  0  0  0
  1 23  1  0  0  0  0
  2  3  2  0  0  0  0
  2 14  1  0  0  0  0
  3  4  1  0  0  0  0
  3 24  1  0  0  0  0
  4  5  1  0  0  0  0
  4  6  2  0  0  0  0
  5 25  1  0  0  0  0
  6  7  1  0  0  0  0
  6 13  1  0  0  0  0
  7  8  2  0  0  0  0
  7  9  1  0  0  0  0
  9 10  1  0  0  0  0
  9 11  2  0  0  0  0
 10 26  1  0  0  0  0
 11 12  1  0  0  0  0
 11 15  1  0  0  0  0
 12 13  1  0  0  0  0
 13 14  2  0  0  0  0
 14 27  1  0  0  0  0
 15 16  2  0  0  0  0
 15 22  1  0  0  0  0
 16 17  1  0  0  0  0
 16 28  1  0  0  0  0
 17 18  2  0  0  0  0
 17 29  1  0  0  0  0
 18 19  1  0  0  0  0
 18 20  1  0  0  0  0
 19 30  1  0  0  0  0
 20 21  1  0  0  0  0
 20 22  2  0  0  0  0
 21 31  1  0  0  0  0
 22 32  1  0  0  0  0
M  END
$$$$

 OpenBabel12201709243D

 26 28  0  0  0  0  0  0  0  0999 V2000
    1.0479    0.0471    0.1229 N   0  0  0  0  0  0  0  0  0  0  0  0
    2.4330    0.0058   -0.0596 C   0  0  0  0  0  0  0  0  0  0  0  0
    3.1827    1.1849   -0.0314 C   0  0  0  0  0  0  0  0  0  0  0  0
    4.5807    1.1469   -0.0646 C   0  0  0  0  0  0  0  0  0  0  0  0
    5.2452   -0.0833   -0.0843 C   0  0  0  0  0  0  0  0  0  0  0  0
    6.7222   -0.1227   -0.0956 C   0  0  0  0  0  0  0  0  0  0  0  0
    7.3707    0.9167   -0.1145 O   0  0  0  0  0  0  0  0  0  0  0  0
    7.4054   -1.4328   -0.0813 C   0  0  0  0  0  0  0  0  0  0  0  0
    8.8052   -1.4877   -0.0771 C   0  0  0  0  0  0  0  0  0  0  0  0
    9.4565   -2.7232   -0.0678 C   0  0  0  0  0  0  0  0  0  0  0  0
    8.7150   -3.9038   -0.0628 C   0  0  0  0  0  0  0  0  0  0  0  0
    7.3204   -3.8520   -0.0649 C   0  0  0  0  0  0  0  0  0  0  0  0
    6.6651   -2.6138   -0.0725 C   0  0  0  0  0  0  0  0  0  0  0  0
    5.1899   -2.5720   -0.0700 C   0  0  0  0  0  0  0  0  0  0  0  0
    4.5404   -3.6108   -0.0763 O   0  0  0  0  0  0  0  0  0  0  0  0
    4.5079   -1.2634   -0.0664 C   0  0  0  0  0  0  0  0  0  0  0  0
    3.1068   -1.2173   -0.0317 C   0  0  0  0  0  0  0  0  0  0  0  0
    0.6040    0.8977   -0.2093 H   0  0  0  0  0  0  0  0  0  0  0  0
    0.5591   -0.7883   -0.1864 H   0  0  0  0  0  0  0  0  0  0  0  0
    2.6828    2.1495    0.0223 H   0  0  0  0  0  0  0  0  0  0  0  0
    5.1435    2.0786   -0.0558 H   0  0  0  0  0  0  0  0  0  0  0  0
    9.3922   -0.5707   -0.0808 H   0  0  0  0  0  0  0  0  0  0  0  0
   10.5435   -2.7640   -0.0647 H   0  0  0  0  0  0  0  0  0  0  0  0
    9.2213   -4.8667   -0.0571 H   0  0  0  0  0  0  0  0  0  0  0  0
    6.7471   -4.7777   -0.0600 H   0  0  0  0  0  0  0  0  0  0  0  0
    2.5411   -2.1456    0.0197 H   0  0  0  0  0  0  0  0  0  0  0  0
  1  2  1  0  0  0  0
  1 18  1  0  0  0  0
  1 19  1  0  0  0  0
  2  3  2  0  0  0  0
  2 17  1  0  0  0  0
  3  4  1  0  0  0  0
  3 20  1  0  0  0  0
  4  5  2  0  0  0  0
  4 21  1  0  0  0  0
  5  6  1  0  0  0  0
  5 16  1  0  0  0  0
  6  7  2  0  0  0  0
  6  8  1  0  0  0  0
  8  9  2  0  0  0  0
  8 13  1  0  0  0  0
  9 10  1  0  0  0  0
  9 22  1  0  0  0  0
 10 11  2  0  0  0  0
 10 23  1  0  0  0  0
 11 12  1  0  0  0  0
 11 24  1  0  0  0  0
 12 13  2  0  0  0  0
 12 25  1  0  0  0  0
 13 14  1  0  0  0  0
 14 15  2  0  0  0  0
 14 16  1  0  0  0  0
 16 17  2  0  0  0  0
 17 26  1  0  0  0  0
M  END
$$$$

 OpenBabel12201709243D

 66 66  0  0  1  0  0  0  0  0999 V2000
    2.9737    2.0053    1.1755 C   0  0  0  0  0  0  0  0  0  0  0  0
    4.2298    2.2812    0.3598 C   0  0  0  0  0  0  0  0  0  0  0  0
    4.3411    1.3155   -0.8214 C   0  0  0  0  0  0  0  0  0  0  0  0
    5.5663    1.5669   -1.7145 C   0  0  0  0  0  0  0  0  0  0  0  0
    6.9457    1.4267   -1.0332 C   0  0  3  0  0  0  0  0  0  0  0  0
    7.1703    0.0716   -0.3253 C   0  0  0  0  0  0  0  0  0  0  0  0
    7.2347   -1.1458   -1.2408 C   0  0  0  0  0  0  0  0  0  0  0  0
    8.0770    1.7062   -2.0427 C   0  0  0  0  0  0  0  0  0  0  0  0
    7.9966    3.0151   -2.6357 O   0  0  0  0  0  0  0  0  0  0  0  0
    8.5750    3.9958   -1.9057 C   0  0  0  0  0  0  0  0  0  0  0  0
    8.8475    3.9519   -0.7161 O   0  0  0  0  0  0  0  0  0  0  0  0
    8.7825    5.2113   -2.7201 C   0  0  0  0  0  0  0  0  0  0  0  0
    8.5024    6.4356   -2.0864 C   0  0  0  0  0  0  0  0  0  0  0  0
    8.7339    7.6505   -2.7394 C   0  0  0  0  0  0  0  0  0  0  0  0
    9.2490    7.6524   -4.0331 C   0  0  0  0  0  0  0  0  0  0  0  0
    9.5297    6.4439   -4.6664 C   0  0  0  0  0  0  0  0  0  0  0  0
    9.3058    5.2121   -4.0222 C   0  0  0  0  0  0  0  0  0  0  0  0
    9.7890    3.9820   -4.7017 C   0  0  0  0  0  0  0  0  0  0  0  0
   10.3177    3.0369   -4.1433 O   0  0  0  0  0  0  0  0  0  0  0  0
    9.6428    4.1449   -6.0421 O   0  0  0  0  0  0  0  0  0  0  0  0
   10.4045    3.2698   -6.8853 C   0  0  0  0  0  0  0  0  0  0  0  0
    9.7620    1.8902   -7.1114 C   0  0  3  0  0  0  0  0  0  0  0  0
    8.3897    1.9699   -7.8201 C   0  0  0  0  0  0  0  0  0  0  0  0
    7.3174    2.7411   -7.0637 C   0  0  0  0  0  0  0  0  0  0  0  0
   10.6960    0.9787   -7.9507 C   0  0  0  0  0  0  0  0  0  0  0  0
   12.0615    0.7226   -7.3022 C   0  0  0  0  0  0  0  0  0  0  0  0
   12.9158   -0.2398   -8.1296 C   0  0  0  0  0  0  0  0  0  0  0  0
   14.2780   -0.4439   -7.4813 C   0  0  0  0  0  0  0  0  0  0  0  0
    2.8929    2.7180    2.0027 H   0  0  0  0  0  0  0  0  0  0  0  0
    2.9988    0.9959    1.5993 H   0  0  0  0  0  0  0  0  0  0  0  0
    2.0745    2.0964    0.5593 H   0  0  0  0  0  0  0  0  0  0  0  0
    5.0992    2.1904    1.0173 H   0  0  0  0  0  0  0  0  0  0  0  0
    4.2017    3.3152   -0.0052 H   0  0  0  0  0  0  0  0  0  0  0  0
    3.4457    1.4206   -1.4480 H   0  0  0  0  0  0  0  0  0  0  0  0
    4.3454    0.2816   -0.4668 H   0  0  0  0  0  0  0  0  0  0  0  0
    5.4774    2.5767   -2.1346 H   0  0  0  0  0  0  0  0  0  0  0  0
    5.5104    0.8810   -2.5690 H   0  0  0  0  0  0  0  0  0  0  0  0
    6.9952    2.2004   -0.2577 H   0  0  0  0  0  0  0  0  0  0  0  0
    6.3883   -0.0911    0.4241 H   0  0  0  0  0  0  0  0  0  0  0  0
    8.1111    0.1203    0.2392 H   0  0  0  0  0  0  0  0  0  0  0  0
    6.4034   -1.1733   -1.9487 H   0  0  0  0  0  0  0  0  0  0  0  0
    7.1986   -2.0629   -0.6449 H   0  0  0  0  0  0  0  0  0  0  0  0
    8.1735   -1.1631   -1.8055 H   0  0  0  0  0  0  0  0  0  0  0  0
    8.0315    0.9946   -2.8741 H   0  0  0  0  0  0  0  0  0  0  0  0
    9.0604    1.5738   -1.5729 H   0  0  0  0  0  0  0  0  0  0  0  0
    8.1200    6.4496   -1.0661 H   0  0  0  0  0  0  0  0  0  0  0  0
    8.5358    8.5898   -2.2304 H   0  0  0  0  0  0  0  0  0  0  0  0
    9.4595    8.5940   -4.5356 H   0  0  0  0  0  0  0  0  0  0  0  0
    9.9712    6.4777   -5.6628 H   0  0  0  0  0  0  0  0  0  0  0  0
   11.4116    3.1925   -6.4606 H   0  0  0  0  0  0  0  0  0  0  0  0
   10.5194    3.7847   -7.8465 H   0  0  0  0  0  0  0  0  0  0  0  0
    9.5987    1.4124   -6.1384 H   0  0  0  0  0  0  0  0  0  0  0  0
    8.0182    0.9486   -7.9697 H   0  0  0  0  0  0  0  0  0  0  0  0
    8.5054    2.4083   -8.8191 H   0  0  0  0  0  0  0  0  0  0  0  0
    7.2895    2.4543   -6.0076 H   0  0  0  0  0  0  0  0  0  0  0  0
    6.3329    2.5371   -7.4962 H   0  0  0  0  0  0  0  0  0  0  0  0
    7.4769    3.8209   -7.1350 H   0  0  0  0  0  0  0  0  0  0  0  0
   10.8441    1.4191   -8.9466 H   0  0  0  0  0  0  0  0  0  0  0  0
   10.1985    0.0134   -8.1077 H   0  0  0  0  0  0  0  0  0  0  0  0
   11.9136    0.3151   -6.2943 H   0  0  0  0  0  0  0  0  0  0  0  0
   12.6152    1.6610   -7.2016 H   0  0  0  0  0  0  0  0  0  0  0  0
   13.0556    0.1601   -9.1400 H   0  0  0  0  0  0  0  0  0  0  0  0
   12.4098   -1.2059   -8.2263 H   0  0  0  0  0  0  0  0  0  0  0  0
   14.8203    0.5045   -7.4032 H   0  0  0  0  0  0  0  0  0  0  0  0
   14.8845   -1.1327   -8.0762 H   0  0  0  0  0  0  0  0  0  0  0  0
   14.1734   -0.8613   -6.4749 H   0  0  0  0  0  0  0  0  0  0  0  0
  1  2  1  0  0  0  0
  1 29  1  0  0  0  0
  1 30  1  0  0  0  0
  1 31  1  0  0  0  0
  2  3  1  0  0  0  0
  2 32  1  0  0  0  0
  2 33  1  0  0  0  0
  3  4  1  0  0  0  0
  3 34  1  0  0  0  0
  3 35  1  0  0  0  0
  4  5  1  0  0  0  0
  4 36  1  0  0  0  0
  4 37  1  0  0  0  0
  5  6  1  0  0  0  0
  5  8  1  0  0  0  0
  5 38  1  0  0  0  0
  6  7  1  0  0  0  0
  6 39  1  0  0  0  0
  6 40  1  0  0  0  0
  7 41  1  0  0  0  0
  7 42  1  0  0  0  0
  7 43  1  0  0  0  0
  8  9  1  0  0  0  0
  8 44  1  0  0  0  0
  8 45  1  0  0  0  0
  9 10  1  0  0  0  0
 10 11  2  0  0  0  0
 10 12  1  0  0  0  0
 12 13  2  0  0  0  0
 12 17  1  0  0  0  0
 13 14  1  0  0  0  0
 13 46  1  0  0  0  0
 14 15  2  0  0  0  0
 14 47  1  0  0  0  0
 15 16  1  0  0  0  0
 15 48  1  0  0  0  0
 16 17  2  0  0  0  0
 16 49  1  0  0  0  0
 17 18  1  0  0  0  0
 18 19  2  0  0  0  0
 18 20  1  0  0  0  0
 20 21  1  0  0  0  0
 21 22  1  0  0  0  0
 21 50  1  0  0  0  0
 21 51  1  0  0  0  0
 22 23  1  0  0  0  0
 22 25  1  0  0  0  0
 22 52  1  0  0  0  0
 23 24  1  0  0  0  0
 23 53  1  0  0  0  0
 23 54  1  0  0  0  0
 24 55  1  0  0  0  0
 24 56  1  0  0  0  0
 24 57  1  0  0  0  0
 25 26  1  0  0  0  0
 25 58  1  0  0  0  0
 25 59  1  0  0  0  0
 26 27  1  0  0  0  0
 26 60  1  0  0  0  0
 26 61  1  0  0  0  0
 27 28  1  0  0  0  0
 27 62  1  0  0  0  0
 27 63  1  0  0  0  0
 28 64  1  0  0  0  0
 28 65  1  0  0  0  0
 28 66  1  0  0  0  0
M  END
$$$$

 OpenBabel12201709243D

 12 12  0  0  0  0  0  0  0  0999 V2000
    0.9357   -0.1066   -0.0107 Cl  0  0  0  0  0  0  0  0  0  0  0  0
    2.6782   -0.0717   -0.0068 C   0  0  0  0  0  0  0  0  0  0  0  0
    3.3574    1.1609   -0.0050 C   0  0  0  0  0  0  0  0  0  0  0  0
    2.4559    2.6525   -0.0067 Cl  0  0  0  0  0  0  0  0  0  0  0  0
    4.7644    1.1891   -0.0019 C   0  0  0  0  0  0  0  0  0  0  0  0
    5.6054    2.7156    0.0002 Cl  0  0  0  0  0  0  0  0  0  0  0  0
    5.4923   -0.0153   -0.0005 C   0  0  0  0  0  0  0  0  0  0  0  0
    7.2348    0.0195    0.0034 Cl  0  0  0  0  0  0  0  0  0  0  0  0
    4.8132   -1.2480   -0.0023 C   0  0  0  0  0  0  0  0  0  0  0  0
    5.7147   -2.7396   -0.0005 Cl  0  0  0  0  0  0  0  0  0  0  0  0
    3.4062   -1.2762   -0.0054 C   0  0  0  0  0  0  0  0  0  0  0  0
    2.5651   -2.8027   -0.0077 Cl  0  0  0  0  0  0  0  0  0  0  0  0
  1  2  1  0  0  0  0
  2  3  2  0  0  0  0
  2 11  1  0  0  0  0
  3  4  1  0  0  0  0
  3  5  1  0  0  0  0
  5  6  1  0  0  0  0
  5  7  2  0  0  0  0
  7  8  1  0  0  0  0
  7  9  1  0  0  0  0
  9 10  1  0  0  0  0
  9 11  2  0  0  0  0
 11 12  1  0  0  0  0
M  END
$$$$

 OpenBabel12201709243D

 17 17  0  0  0  0  0  0  0  0999 V2000
    0.9772   -0.1203   -0.0303 N   0  0  0  0  0  0  0  0  0  0  0  0
    2.4007   -0.1193    0.0074 C   0  0  0  0  0  0  0  0  0  0  0  0
    3.0748    1.1100   -0.0427 C   0  0  0  0  0  0  0  0  0  0  0  0
    4.4656    1.1583   -0.1613 C   0  0  0  0  0  0  0  0  0  0  0  0
    5.1981   -0.0203   -0.2702 C   0  0  0  0  0  0  0  0  0  0  0  0
    4.5391   -1.2491   -0.2660 C   0  0  0  0  0  0  0  0  0  0  0  0
    3.1414   -1.3110   -0.1418 C   0  0  0  0  0  0  0  0  0  0  0  0
    2.5213   -2.6711   -0.1503 C   0  0  0  0  0  0  0  0  0  0  0  0
    3.1511   -3.6850   -0.4100 O   0  0  0  0  0  0  0  0  0  0  0  0
    1.2098   -2.6935    0.1696 O   0  0  0  0  0  0  0  0  0  0  0  0
    0.6086    0.7416    0.3807 H   0  0  0  0  0  0  0  0  0  0  0  0
    0.6726   -0.1320   -1.0114 H   0  0  0  0  0  0  0  0  0  0  0  0
    2.5253    2.0468    0.0131 H   0  0  0  0  0  0  0  0  0  0  0  0
    4.9765    2.1184   -0.1825 H   0  0  0  0  0  0  0  0  0  0  0  0
    6.2805    0.0151   -0.3698 H   0  0  0  0  0  0  0  0  0  0  0  0
    5.1200   -2.1653   -0.3647 H   0  0  0  0  0  0  0  0  0  0  0  0
    0.8668   -1.7828    0.3411 H   0  0  0  0  0  0  0  0  0  0  0  0
  1  2  1  0  0  0  0
  1 11  1  0  0  0  0
  1 12  1  0  0  0  0
  2  3  2  0  0  0  0
  2  7  1  0  0  0  0
  3  4  1  0  0  0  0
  3 13  1  0  0  0  0
  4  5  2  0  0  0  0
  4 14  1  0  0  0  0
  5  6  1  0  0  0  0
  5 15  1  0  0  0  0
  6  7  2  0  0  0  0
  6 16  1  0  0  0  0
  7  8  1  0  0  0  0
  8  9  2  0  0  0  0
  8 10  1  0  0  0  0
 10 17  1  0  0  0  0
M  END
$$$$

 OpenBabel12201709243D

 18 18  0  0  0  0  0  0  0  0999 V2000
    1.0348    0.0506    0.2233 N   0  0  0  0  0  0  0  0  0  0  0  0
    2.4020    0.0215   -0.0693 C   0  0  0  0  0  0  0  0  0  0  0  0
    3.1419    1.2060   -0.0840 C   0  0  0  0  0  0  0  0  0  0  0  0
    4.5293    1.1836   -0.2508 C   0  0  0  0  0  0  0  0  0  0  0  0
    5.1919   -0.0370   -0.3636 C   0  0  0  0  0  0  0  0  0  0  0  0
    6.5493   -0.0571   -0.5303 O   0  0  0  0  0  0  0  0  0  0  0  0
    4.4789   -1.2348   -0.2900 C   0  0  0  0  0  0  0  0  0  0  0  0
    3.0852   -1.1960   -0.1181 C   0  0  0  0  0  0  0  0  0  0  0  0
    5.1392   -2.5299   -0.3771 N   0  0  0  0  0  0  0  0  0  0  0  0
    4.4591   -3.5387   -0.3527 O   0  0  0  0  0  0  0  0  0  0  0  0
    6.5146   -2.6653   -0.4954 O   0  0  0  0  0  0  0  0  0  0  0  0
    0.5631    0.8997   -0.0714 H   0  0  0  0  0  0  0  0  0  0  0  0
    0.5342   -0.7852   -0.0666 H   0  0  0  0  0  0  0  0  0  0  0  0
    2.6388    2.1626    0.0362 H   0  0  0  0  0  0  0  0  0  0  0  0
    5.0679    2.1263   -0.2748 H   0  0  0  0  0  0  0  0  0  0  0  0
    6.8704    0.8630   -0.5810 H   0  0  0  0  0  0  0  0  0  0  0  0
    2.5282   -2.1270   -0.0257 H   0  0  0  0  0  0  0  0  0  0  0  0
    6.8040   -1.7375   -0.5056 H   0  0  0  0  0  0  0  0  0  0  0  0
  1  2  1  0  0  0  0
  1 12  1  0  0  0  0
  1 13  1  0  0  0  0
  2  3  2  0  0  0  0
  2  8  1  0  0  0  0
  3  4  1  0  0  0  0
  3 14  1  0  0  0  0
  4  5  2  0  0  0  0
  4 15  1  0  0  0  0
  5  6  1  0  0  0  0
  5  7  1  0  0  0  0
  6 16  1  0  0  0  0
  7  8  2  0  0  0  0
  7  9  1  0  0  0  0
  8 17  1  0  0  0  0
  9 10  2  0  0  0  0
  9 11  1  0  0  0  0
 11 18  1  0  0  0  0
M  END
$$$$

 OpenBabel12201709243D

 28 29  0  0  1  0  0  0  0  0999 V2000
    0.8977   -0.0103    0.0780 O   0  0  0  0  0  0  0  0  0  0  0  0
    2.3155    0.0027    0.2434 C   0  0  3  0  0  0  0  0  0  0  0  0
    2.7467    1.2607    1.0164 C   0  0  0  0  0  0  0  0  0  0  0  0
    3.4992    2.0859    0.4893 O   0  0  0  0  0  0  0  0  0  0  0  0
    2.2360    1.5255    2.4007 C   0  0  0  0  0  0  0  0  0  0  0  0
    1.3992    0.6429    3.0913 C   0  0  0  0  0  0  0  0  0  0  0  0
    0.9714    0.9364    4.3885 C   0  0  0  0  0  0  0  0  0  0  0  0
    1.3604    2.1247    5.0018 C   0  0  0  0  0  0  0  0  0  0  0  0
    2.1775    3.0217    4.3197 C   0  0  0  0  0  0  0  0  0  0  0  0
    2.6153    2.7234    3.0257 C   0  0  0  0  0  0  0  0  0  0  0  0
    2.8370   -1.2939    0.8434 C   0  0  0  0  0  0  0  0  0  0  0  0
    1.9834   -2.3760    1.1168 C   0  0  0  0  0  0  0  0  0  0  0  0
    2.4741   -3.5497    1.6917 C   0  0  0  0  0  0  0  0  0  0  0  0
    3.8308   -3.6697    1.9794 C   0  0  0  0  0  0  0  0  0  0  0  0
    4.6980   -2.6196    1.6875 C   0  0  0  0  0  0  0  0  0  0  0  0
    4.2069   -1.4414    1.1196 C   0  0  0  0  0  0  0  0  0  0  0  0
    0.6798    0.7810   -0.4460 H   0  0  0  0  0  0  0  0  0  0  0  0
    2.7396    0.0741   -0.7671 H   0  0  0  0  0  0  0  0  0  0  0  0
    1.0578   -0.2870    2.6509 H   0  0  0  0  0  0  0  0  0  0  0  0
    0.3334    0.2331    4.9181 H   0  0  0  0  0  0  0  0  0  0  0  0
    1.0226    2.3512    6.0095 H   0  0  0  0  0  0  0  0  0  0  0  0
    2.4763    3.9538    4.7915 H   0  0  0  0  0  0  0  0  0  0  0  0
    3.2579    3.4347    2.5101 H   0  0  0  0  0  0  0  0  0  0  0  0
    0.9190   -2.3054    0.8975 H   0  0  0  0  0  0  0  0  0  0  0  0
    1.7947   -4.3678    1.9149 H   0  0  0  0  0  0  0  0  0  0  0  0
    4.2122   -4.5834    2.4273 H   0  0  0  0  0  0  0  0  0  0  0  0
    5.7594   -2.7174    1.9026 H   0  0  0  0  0  0  0  0  0  0  0  0
    4.9056   -0.6354    0.8986 H   0  0  0  0  0  0  0  0  0  0  0  0
  1  2  1  0  0  0  0
  1 17  1  0  0  0  0
  2  3  1  0  0  0  0
  2 11  1  0  0  0  0
  2 18  1  0  0  0  0
  3  4  2  0  0  0  0
  3  5  1  0  0  0  0
  5  6  2  0  0  0  0
  5 10  1  0  0  0  0
  6  7  1  0  0  0  0
  6 19  1  0  0  0  0
  7  8  2  0  0  0  0
  7 20  1  0  0  0  0
  8  9  1  0  0  0  0
  8 21  1  0  0  0  0
  9 10  2  0  0  0  0
  9 22  1  0  0  0  0
 10 23  1  0  0  0  0
 11 12  2  0  0  0  0
 11 16  1  0  0  0  0
 12 13  1  0  0  0  0
 12 24  1  0  0  0  0
 13 14  2  0  0  0  0
 13 25  1  0  0  0  0
 14 15  1  0  0  0  0
 14 26  1  0  0  0  0
 15 16  2  0  0  0  0
 15 27  1  0  0  0  0
 16 28  1  0  0  0  0
M  END
$$$$

 OpenBabel12201709243D

 19 20  0  0  0  0  0  0  0  0999 V2000
    1.2369    0.1245    0.6830 O   0  0  0  0  0  0  0  0  0  0  0  0
    2.3362   -0.0009    0.1521 C   0  0  0  0  0  0  0  0  0  0  0  0
    3.1509   -1.2594    0.2579 C   0  0  0  0  0  0  0  0  0  0  0  0
    3.7594   -1.6287   -1.0813 C   0  0  0  0  0  0  0  0  0  0  0  0
    4.4924   -0.4548   -1.6459 C   0  0  0  0  0  0  0  0  0  0  0  0
    5.5443   -0.6132   -2.5533 C   0  0  0  0  0  0  0  0  0  0  0  0
    6.1891    0.5081   -3.0818 C   0  0  0  0  0  0  0  0  0  0  0  0
    5.7876    1.7929   -2.7095 C   0  0  0  0  0  0  0  0  0  0  0  0
    4.7269    1.9598   -1.8217 C   0  0  0  0  0  0  0  0  0  0  0  0
    4.0854    0.8355   -1.3092 C   0  0  0  0  0  0  0  0  0  0  0  0
    2.9636    1.0577   -0.4898 O   0  0  0  0  0  0  0  0  0  0  0  0
    2.5034   -2.0730    0.6005 H   0  0  0  0  0  0  0  0  0  0  0  0
    3.9204   -1.0991    1.0232 H   0  0  0  0  0  0  0  0  0  0  0  0
    2.9783   -1.9327   -1.7874 H   0  0  0  0  0  0  0  0  0  0  0  0
    4.4417   -2.4760   -0.9421 H   0  0  0  0  0  0  0  0  0  0  0  0
    5.8646   -1.6064   -2.8597 H   0  0  0  0  0  0  0  0  0  0  0  0
    7.0040    0.3804   -3.7918 H   0  0  0  0  0  0  0  0  0  0  0  0
    6.2919    2.6620   -3.1243 H   0  0  0  0  0  0  0  0  0  0  0  0
    4.3939    2.9563   -1.5458 H   0  0  0  0  0  0  0  0  0  0  0  0
  1  2  2  0  0  0  0
  2  3  1  0  0  0  0
  2 11  1  0  0  0  0
  3  4  1  0  0  0  0
  3 12  1  0  0  0  0
  3 13  1  0  0  0  0
  4  5  1  0  0  0  0
  4 14  1  0  0  0  0
  4 15  1  0  0  0  0
  5  6  2  0  0  0  0
  5 10  1  0  0  0  0
  6  7  1  0  0  0  0
  6 16  1  0  0  0  0
  7  8  2  0  0  0  0
  7 17  1  0  0  0  0
  8  9  1  0  0  0  0
  8 18  1  0  0  0  0
  9 10  2  0  0  0  0
  9 19  1  0  0  0  0
 10 11  1  0  0  0  0
M  END
$$$$

 OpenBabel12201709243D

 26 27  0  0  0  0  0  0  0  0999 V2000
    2.7016   -0.6678    2.4043 O   0  0  0  0  0  0  0  0  0  0  0  0
    3.2100   -0.1789    1.2335 C   0  0  0  0  0  0  0  0  0  0  0  0
    3.8924    1.0399    1.2308 C   0  0  0  0  0  0  0  0  0  0  0  0
    4.4378    1.5251    0.0413 C   0  0  0  0  0  0  0  0  0  0  0  0
    4.2949    0.7904   -1.1330 C   0  0  0  0  0  0  0  0  0  0  0  0
    4.9884    1.3763   -2.5952 Cl  0  0  0  0  0  0  0  0  0  0  0  0
    3.6065   -0.4234   -1.1297 C   0  0  0  0  0  0  0  0  0  0  0  0
    3.0546   -0.9279    0.0614 C   0  0  0  0  0  0  0  0  0  0  0  0
    2.3531   -2.2656    0.0526 C   0  0  0  0  0  0  0  0  0  0  0  0
    0.8761   -2.2259   -0.2695 C   0  0  0  0  0  0  0  0  0  0  0  0
    0.4286   -2.2551   -1.5986 C   0  0  0  0  0  0  0  0  0  0  0  0
   -0.9365   -2.3209   -1.8875 C   0  0  0  0  0  0  0  0  0  0  0  0
   -1.8689   -2.3493   -0.8523 C   0  0  0  0  0  0  0  0  0  0  0  0
   -1.4390   -2.2838    0.4712 C   0  0  0  0  0  0  0  0  0  0  0  0
   -0.0744   -2.2142    0.7616 C   0  0  0  0  0  0  0  0  0  0  0  0
    2.8934   -0.0380    3.1183 H   0  0  0  0  0  0  0  0  0  0  0  0
    4.0189    1.6171    2.1416 H   0  0  0  0  0  0  0  0  0  0  0  0
    4.9774    2.4695    0.0381 H   0  0  0  0  0  0  0  0  0  0  0  0
    3.5137   -0.9887   -2.0540 H   0  0  0  0  0  0  0  0  0  0  0  0
    2.5052   -2.7751    1.0130 H   0  0  0  0  0  0  0  0  0  0  0  0
    2.8508   -2.9259   -0.6709 H   0  0  0  0  0  0  0  0  0  0  0  0
    1.1418   -2.2498   -2.4190 H   0  0  0  0  0  0  0  0  0  0  0  0
   -1.2713   -2.3650   -2.9204 H   0  0  0  0  0  0  0  0  0  0  0  0
   -2.9297   -2.4242   -1.0770 H   0  0  0  0  0  0  0  0  0  0  0  0
   -2.1649   -2.3005    1.2798 H   0  0  0  0  0  0  0  0  0  0  0  0
    0.2482   -2.1717    1.7995 H   0  0  0  0  0  0  0  0  0  0  0  0
  1  2  1  0  0  0  0
  1 16  1  0  0  0  0
  2  3  2  0  0  0  0
  2  8  1  0  0  0  0
  3  4  1  0  0  0  0
  3 17  1  0  0  0  0
  4  5  2  0  0  0  0
  4 18  1  0  0  0  0
  5  6  1  0  0  0  0
  5  7  1  0  0  0  0
  7  8  2  0  0  0  0
  7 19  1  0  0  0  0
  8  9  1  0  0  0  0
  9 10  1  0  0  0  0
  9 20  1  0  0  0  0
  9 21  1  0  0  0  0
 10 11  2  0  0  0  0
 10 15  1  0  0  0  0
 11 12  1  0  0  0  0
 11 22  1  0  0  0  0
 12 13  2  0  0  0  0
 12 23  1  0  0  0  0
 13 14  1  0  0  0  0
 13 24  1  0  0  0  0
 14 15  2  0  0  0  0
 14 25  1  0  0  0  0
 15 26  1  0  0  0  0
M  END
$$$$

 OpenBabel12201709243D

 22 23  0  0  0  0  0  0  0  0999 V2000
    1.1798    0.6768    0.7389 C   0  0  0  0  0  0  0  0  0  0  0  0
    2.6735    0.6511    0.7438 C   0  0  0  0  0  0  0  0  0  0  0  0
    3.3891   -0.4457    1.0393 C   0  0  0  0  0  0  0  0  0  0  0  0
    4.8597   -0.5009    1.0363 C   0  0  0  0  0  0  0  0  0  0  0  0
    5.6529    0.6208    1.3720 C   0  0  0  0  0  0  0  0  0  0  0  0
    7.0504    0.5493    1.3715 C   0  0  0  0  0  0  0  0  0  0  0  0
    7.6273   -0.6569    1.0486 C   0  0  0  0  0  0  0  0  0  0  0  0
    8.9618   -0.9103    0.9970 O   0  0  0  0  0  0  0  0  0  0  0  0
    8.9579   -2.3041    0.6262 C   0  0  0  0  0  0  0  0  0  0  0  0
    7.6329   -2.8516    0.4618 O   0  0  0  0  0  0  0  0  0  0  0  0
    6.8690   -1.7613    0.7416 C   0  0  0  0  0  0  0  0  0  0  0  0
    5.4891   -1.7186    0.7325 C   0  0  0  0  0  0  0  0  0  0  0  0
    0.8290    1.6862    0.5003 H   0  0  0  0  0  0  0  0  0  0  0  0
    0.7778    0.4080    1.7203 H   0  0  0  0  0  0  0  0  0  0  0  0
    0.7811   -0.0033   -0.0198 H   0  0  0  0  0  0  0  0  0  0  0  0
    3.1651    1.5818    0.4754 H   0  0  0  0  0  0  0  0  0  0  0  0
    2.8768   -1.3763    1.2758 H   0  0  0  0  0  0  0  0  0  0  0  0
    5.1843    1.5633    1.6453 H   0  0  0  0  0  0  0  0  0  0  0  0
    7.6565    1.4126    1.6202 H   0  0  0  0  0  0  0  0  0  0  0  0
    9.4792   -2.8739    1.4040 H   0  0  0  0  0  0  0  0  0  0  0  0
    9.5040   -2.4172   -0.3177 H   0  0  0  0  0  0  0  0  0  0  0  0
    4.9210   -2.6085    0.4837 H   0  0  0  0  0  0  0  0  0  0  0  0
  1  2  1  0  0  0  0
  1 13  1  0  0  0  0
  1 14  1  0  0  0  0
  1 15  1  0  0  0  0
  2  3  2  3  0  0  0
  2 16  1  0  0  0  0
  3  4  1  0  0  0  0
  3 17  1  0  0  0  0
  4  5  2  0  0  0  0
  4 12  1  0  0  0  0
  5  6  1  0  0  0  0
  5 18  1  0  0  0  0
  6  7  2  0  0  0  0
  6 19  1  0  0  0  0
  7  8  1  0  0  0  0
  7 11  1  0  0  0  0
  8  9  1  0  0  0  0
  9 10  1  0  0  0  0
  9 20  1  0  0  0  0
  9 21  1  0  0  0  0
 10 11  1  0  0  0  0
 11 12  2  0  0  0  0
 12 22  1  0  0  0  0
M  END
$$$$

 OpenBabel12201709243D

 24 24  0  0  0  0  0  0  0  0999 V2000
    1.1066   -0.2012    0.1885 C   0  0  0  0  0  0  0  0  0  0  0  0
    2.5355   -0.2539    0.1922 O   0  0  0  0  0  0  0  0  0  0  0  0
    3.0648   -0.7331   -0.9603 C   0  0  0  0  0  0  0  0  0  0  0  0
    2.4323   -1.0787   -1.9466 O   0  0  0  0  0  0  0  0  0  0  0  0
    4.5486   -0.8161   -0.8738 C   0  0  0  0  0  0  0  0  0  0  0  0
    5.2430   -1.3033   -1.9888 C   0  0  0  0  0  0  0  0  0  0  0  0
    6.6322   -1.4504   -1.9488 C   0  0  0  0  0  0  0  0  0  0  0  0
    7.3480   -1.1134   -0.7924 C   0  0  0  0  0  0  0  0  0  0  0  0
    6.6586   -0.6024    0.3162 C   0  0  0  0  0  0  0  0  0  0  0  0
    5.2649   -0.4543    0.2761 C   0  0  0  0  0  0  0  0  0  0  0  0
    8.8185   -1.3447   -0.7931 C   0  0  0  0  0  0  0  0  0  0  0  0
    9.4271   -1.7889   -1.7540 O   0  0  0  0  0  0  0  0  0  0  0  0
    9.3596   -1.0256    0.4090 O   0  0  0  0  0  0  0  0  0  0  0  0
   10.7623   -1.2878    0.4937 C   0  0  0  0  0  0  0  0  0  0  0  0
    0.7823    0.3038    1.1023 H   0  0  0  0  0  0  0  0  0  0  0  0
    0.6945   -1.2149    0.1861 H   0  0  0  0  0  0  0  0  0  0  0  0
    0.7364    0.3689   -0.6698 H   0  0  0  0  0  0  0  0  0  0  0  0
    4.7038   -1.5840   -2.8924 H   0  0  0  0  0  0  0  0  0  0  0  0
    7.1514   -1.8433   -2.8222 H   0  0  0  0  0  0  0  0  0  0  0  0
    7.1901   -0.3262    1.2245 H   0  0  0  0  0  0  0  0  0  0  0  0
    4.7519   -0.0677    1.1541 H   0  0  0  0  0  0  0  0  0  0  0  0
   11.1117   -0.9549    1.4746 H   0  0  0  0  0  0  0  0  0  0  0  0
   11.3086   -0.7324   -0.2753 H   0  0  0  0  0  0  0  0  0  0  0  0
   10.9525   -2.3618    0.4043 H   0  0  0  0  0  0  0  0  0  0  0  0
  1  2  1  0  0  0  0
  1 15  1  0  0  0  0
  1 16  1  0  0  0  0
  1 17  1  0  0  0  0
  2  3  1  0  0  0  0
  3  4  2  0  0  0  0
  3  5  1  0  0  0  0
  5  6  2  0  0  0  0
  5 10  1  0  0  0  0
  6  7  1  0  0  0  0
  6 18  1  0  0  0  0
  7  8  2  0  0  0  0
  7 19  1  0  0  0  0
  8  9  1  0  0  0  0
  8 11  1  0  0  0  0
  9 10  2  0  0  0  0
  9 20  1  0  0  0  0
 10 21  1  0  0  0  0
 11 12  2  0  0  0  0
 11 13  1  0  0  0  0
 13 14  1  0  0  0  0
 14 22  1  0  0  0  0
 14 23  1  0  0  0  0
 14 24  1  0  0  0  0
M  END
$$$$

 OpenBabel12201709243D

 50 51  0  0  1  0  0  0  0  0999 V2000
    0.8614    0.0501    0.1075 C   0  0  0  0  0  0  0  0  0  0  0  0
    2.3816    0.0613    0.0953 C   0  0  0  0  0  0  0  0  0  0  0  0
    2.9141    1.3525   -0.5202 C   0  0  0  0  0  0  0  0  0  0  0  0
    4.4417    1.3807   -0.5435 C   0  0  0  0  0  0  0  0  0  0  0  0
    4.9398    2.6835   -1.1688 C   0  0  0  0  0  0  0  0  0  0  0  0
    6.4630    2.7408   -1.2127 C   0  0  0  0  0  0  0  0  0  0  0  0
    6.9445    4.0545   -1.8354 C   0  0  0  0  0  0  0  0  0  0  0  0
    8.4655    4.0924   -1.8612 C   0  0  0  0  0  0  0  0  0  0  0  0
    9.0890    5.6589   -2.5489 S   0  0  3  0  0  0  0  0  0  0  0  0
    8.5831    6.7796   -1.6898 O   0  0  0  0  0  0  0  0  0  0  0  0
   10.8972    5.4461   -2.1865 C   0  0  3  0  0  0  0  0  0  0  0  0
   11.1654    5.4355   -0.6816 C   0  0  0  0  0  0  0  0  0  0  0  0
   11.4439    4.2373   -2.9641 C   0  0  0  0  0  0  0  0  0  0  0  0
   12.9027    3.8746   -2.8025 C   0  0  0  0  0  0  0  0  0  0  0  0
   13.9234    4.8367   -2.6380 C   0  0  0  0  0  0  0  0  0  0  0  0
   15.2597    4.4452   -2.4828 C   0  0  0  0  0  0  0  0  0  0  0  0
   15.5507    3.0987   -2.5299 C   0  0  0  0  0  0  0  0  0  0  0  0
   16.7833    2.5400   -2.4020 O   0  0  0  0  0  0  0  0  0  0  0  0
   16.4663    1.1414   -2.5701 C   0  0  0  0  0  0  0  0  0  0  0  0
   15.0588    0.8903   -2.7581 O   0  0  0  0  0  0  0  0  0  0  0  0
   14.5704    2.1583   -2.7274 C   0  0  0  0  0  0  0  0  0  0  0  0
   13.2492    2.5111   -2.8717 C   0  0  0  0  0  0  0  0  0  0  0  0
    0.4946   -0.8807    0.5498 H   0  0  0  0  0  0  0  0  0  0  0  0
    0.4614    0.1265   -0.9088 H   0  0  0  0  0  0  0  0  0  0  0  0
    0.4669    0.8851    0.6955 H   0  0  0  0  0  0  0  0  0  0  0  0
    2.7452   -0.8024   -0.4734 H   0  0  0  0  0  0  0  0  0  0  0  0
    2.7524   -0.0439    1.1215 H   0  0  0  0  0  0  0  0  0  0  0  0
    2.5423    2.2119    0.0510 H   0  0  0  0  0  0  0  0  0  0  0  0
    2.5320    1.4561   -1.5432 H   0  0  0  0  0  0  0  0  0  0  0  0
    4.8210    0.5253   -1.1157 H   0  0  0  0  0  0  0  0  0  0  0  0
    4.8307    1.2861    0.4778 H   0  0  0  0  0  0  0  0  0  0  0  0
    4.5595    3.5351   -0.5920 H   0  0  0  0  0  0  0  0  0  0  0  0
    4.5428    2.7777   -2.1865 H   0  0  0  0  0  0  0  0  0  0  0  0
    6.8491    1.8924   -1.7912 H   0  0  0  0  0  0  0  0  0  0  0  0
    6.8641    2.6450   -0.1961 H   0  0  0  0  0  0  0  0  0  0  0  0
    6.5541    4.8996   -1.2560 H   0  0  0  0  0  0  0  0  0  0  0  0
    6.5485    4.1523   -2.8534 H   0  0  0  0  0  0  0  0  0  0  0  0
    8.8255    3.2729   -2.4878 H   0  0  0  0  0  0  0  0  0  0  0  0
    8.8436    3.9589   -0.8474 H   0  0  0  0  0  0  0  0  0  0  0  0
   11.3552    6.3554   -2.5951 H   0  0  0  0  0  0  0  0  0  0  0  0
   10.6425    4.6344   -0.1562 H   0  0  0  0  0  0  0  0  0  0  0  0
   10.8512    6.3842   -0.2312 H   0  0  0  0  0  0  0  0  0  0  0  0
   12.2293    5.3181   -0.4594 H   0  0  0  0  0  0  0  0  0  0  0  0
   11.2629    4.3882   -4.0375 H   0  0  0  0  0  0  0  0  0  0  0  0
   10.8722    3.3484   -2.6812 H   0  0  0  0  0  0  0  0  0  0  0  0
   13.6881    5.8988   -2.6131 H   0  0  0  0  0  0  0  0  0  0  0  0
   16.0447    5.1779   -2.3328 H   0  0  0  0  0  0  0  0  0  0  0  0
   16.8030    0.5926   -1.6832 H   0  0  0  0  0  0  0  0  0  0  0  0
   17.0072    0.7630   -3.4450 H   0  0  0  0  0  0  0  0  0  0  0  0
   12.5010    1.7399   -3.0324 H   0  0  0  0  0  0  0  0  0  0  0  0
  1  2  1  0  0  0  0
  1 23  1  0  0  0  0
  1 24  1  0  0  0  0
  1 25  1  0  0  0  0
  2  3  1  0  0  0  0
  2 26  1  0  0  0  0
  2 27  1  0  0  0  0
  3  4  1  0  0  0  0
  3 28  1  0  0  0  0
  3 29  1  0  0  0  0
  4  5  1  0  0  0  0
  4 30  1  0  0  0  0
  4 31  1  0  0  0  0
  5  6  1  0  0  0  0
  5 32  1  0  0  0  0
  5 33  1  0  0  0  0
  6  7  1  0  0  0  0
  6 34  1  0  0  0  0
  6 35  1  0  0  0  0
  7  8  1  0  0  0  0
  7 36  1  0  0  0  0
  7 37  1  0  0  0  0
  8  9  1  0  0  0  0
  8 38  1  0  0  0  0
  8 39  1  0  0  0  0
  9 10  2  0  0  0  0
  9 11  1  0  0  0  0
 11 12  1  0  0  0  0
 11 13  1  0  0  0  0
 11 40  1  0  0  0  0
 12 41  1  0  0  0  0
 12 42  1  0  0  0  0
 12 43  1  0  0  0  0
 13 14  1  0  0  0  0
 13 44  1  0  0  0  0
 13 45  1  0  0  0  0
 14 15  2  0  0  0  0
 14 22  1  0  0  0  0
 15 16  1  0  0  0  0
 15 46  1  0  0  0  0
 16 17  2  0  0  0  0
 16 47  1  0  0  0  0
 17 18  1  0  0  0  0
 17 21  1  0  0  0  0
 18 19  1  0  0  0  0
 19 20  1  0  0  0  0
 19 48  1  0  0  0  0
 19 49  1  0  0  0  0
 20 21  1  0  0  0  0
 21 22  2  0  0  0  0
 22 50  1  0  0  0  0
M  END
$$$$

 OpenBabel12201709243D

 21 21  0  0  0  0  0  0  0  0999 V2000
    1.1740    0.2567   -0.2533 C   0  0  0  0  0  0  0  0  0  0  0  0
    2.5094   -0.0172    0.1505 O   0  0  0  0  0  0  0  0  0  0  0  0
    3.1177    0.9480    0.9190 C   0  0  0  0  0  0  0  0  0  0  0  0
    2.7832    2.3039    0.8983 C   0  0  0  0  0  0  0  0  0  0  0  0
    3.4900    3.2145    1.6899 C   0  0  0  0  0  0  0  0  0  0  0  0
    4.5302    2.7803    2.5169 C   0  0  0  0  0  0  0  0  0  0  0  0
    5.2823    3.7454    3.3844 C   0  0  0  0  0  0  0  0  0  0  0  0
    4.8580    1.4186    2.5385 C   0  0  0  0  0  0  0  0  0  0  0  0
    4.1956    0.5050    1.7097 C   0  0  0  0  0  0  0  0  0  0  0  0
    4.4646   -0.8732    1.8425 N   0  0  0  0  0  0  0  0  0  0  0  0
    0.7943   -0.6306   -0.7695 H   0  0  0  0  0  0  0  0  0  0  0  0
    1.1305    1.0877   -0.9643 H   0  0  0  0  0  0  0  0  0  0  0  0
    0.5311    0.4430    0.6134 H   0  0  0  0  0  0  0  0  0  0  0  0
    1.9886    2.6866    0.2678 H   0  0  0  0  0  0  0  0  0  0  0  0
    3.2165    4.2666    1.6578 H   0  0  0  0  0  0  0  0  0  0  0  0
    4.9507    4.7760    3.2192 H   0  0  0  0  0  0  0  0  0  0  0  0
    6.3528    3.6995    3.1579 H   0  0  0  0  0  0  0  0  0  0  0  0
    5.1251    3.5039    4.4405 H   0  0  0  0  0  0  0  0  0  0  0  0
    5.6382    1.0649    3.2078 H   0  0  0  0  0  0  0  0  0  0  0  0
    5.4376   -1.0776    2.0383 H   0  0  0  0  0  0  0  0  0  0  0  0
    4.1037   -1.3794    1.0349 H   0  0  0  0  0  0  0  0  0  0  0  0
  1  2  1  0  0  0  0
  1 11  1  0  0  0  0
  1 12  1  0  0  0  0
  1 13  1  0  0  0  0
  2  3  1  0  0  0  0
  3  4  2  0  0  0  0
  3  9  1  0  0  0  0
  4  5  1  0  0  0  0
  4 14  1  0  0  0  0
  5  6  2  0  0  0  0
  5 15  1  0  0  0  0
  6  7  1  0  0  0  0
  6  8  1  0  0  0  0
  7 16  1  0  0  0  0
  7 17  1  0  0  0  0
  7 18  1  0  0  0  0
  8  9  2  0  0  0  0
  8 19  1  0  0  0  0
  9 10  1  0  0  0  0
 10 20  1  0  0  0  0
 10 21  1  0  0  0  0
M  END
$$$$

 OpenBabel12201709243D

 28 31  0  0  0  0  0  0  0  0999 V2000
    0.8904    0.0955    0.1185 S   0  0  0  0  0  0  0  0  0  0  0  0
    0.3303   -1.8330    0.5988 S   0  0  0  0  0  0  0  0  0  0  0  0
    1.0971   -1.9790    2.1737 C   0  0  0  0  0  0  0  0  0  0  0  0
    1.2783   -0.9479    2.9678 N   0  0  0  0  0  0  0  0  0  0  0  0
    2.0116   -1.3349    4.0733 C   0  0  0  0  0  0  0  0  0  0  0  0
    2.4440   -0.4849    5.1112 C   0  0  0  0  0  0  0  0  0  0  0  0
    3.1935   -1.0073    6.1693 C   0  0  0  0  0  0  0  0  0  0  0  0
    3.5102   -2.3621    6.2061 C   0  0  0  0  0  0  0  0  0  0  0  0
    3.0899   -3.2266    5.1910 C   0  0  0  0  0  0  0  0  0  0  0  0
    2.3425   -2.6896    4.1298 C   0  0  0  0  0  0  0  0  0  0  0  0
    1.7001   -3.4790    2.7413 S   0  0  0  0  0  0  0  0  0  0  0  0
    2.6309   -0.1119   -0.0366 C   0  0  0  0  0  0  0  0  0  0  0  0
    3.1849   -1.2568   -0.3679 N   0  0  0  0  0  0  0  0  0  0  0  0
    4.5614   -1.1253   -0.3812 C   0  0  0  0  0  0  0  0  0  0  0  0
    5.4832   -2.1475   -0.6836 C   0  0  0  0  0  0  0  0  0  0  0  0
    6.8540   -1.8711   -0.6807 C   0  0  0  0  0  0  0  0  0  0  0  0
    7.3143   -0.5945   -0.3735 C   0  0  0  0  0  0  0  0  0  0  0  0
    6.4207    0.4341   -0.0576 C   0  0  0  0  0  0  0  0  0  0  0  0
    5.0457    0.1465   -0.0697 C   0  0  0  0  0  0  0  0  0  0  0  0
    3.7126    1.1849    0.2592 S   0  0  0  0  0  0  0  0  0  0  0  0
    2.1973    0.5715    5.0729 H   0  0  0  0  0  0  0  0  0  0  0  0
    3.5312   -0.3472    6.9637 H   0  0  0  0  0  0  0  0  0  0  0  0
    4.0955   -2.7543    7.0354 H   0  0  0  0  0  0  0  0  0  0  0  0
    3.3418   -4.2822    5.2198 H   0  0  0  0  0  0  0  0  0  0  0  0
    5.1186   -3.1415   -0.9231 H   0  0  0  0  0  0  0  0  0  0  0  0
    7.5614   -2.6607   -0.9239 H   0  0  0  0  0  0  0  0  0  0  0  0
    8.3834   -0.3919   -0.3799 H   0  0  0  0  0  0  0  0  0  0  0  0
    6.7821    1.4290    0.1843 H   0  0  0  0  0  0  0  0  0  0  0  0
  1  2  1  0  0  0  0
  1 12  1  0  0  0  0
  2  3  1  0  0  0  0
  3  4  2  0  0  0  0
  3 11  1  0  0  0  0
  4  5  1  0  0  0  0
  5  6  2  0  0  0  0
  5 10  1  0  0  0  0
  6  7  1  0  0  0  0
  6 21  1  0  0  0  0
  7  8  2  0  0  0  0
  7 22  1  0  0  0  0
  8  9  1  0  0  0  0
  8 23  1  0  0  0  0
  9 10  2  0  0  0  0
  9 24  1  0  0  0  0
 10 11  1  0  0  0  0
 12 13  2  0  0  0  0
 12 20  1  0  0  0  0
 13 14  1  0  0  0  0
 14 15  2  0  0  0  0
 14 19  1  0  0  0  0
 15 16  1  0  0  0  0
 15 25  1  0  0  0  0
 16 17  2  0  0  0  0
 16 26  1  0  0  0  0
 17 18  1  0  0  0  0
 17 27  1  0  0  0  0
 18 19  2  0  0  0  0
 18 28  1  0  0  0  0
 19 20  1  0  0  0  0
M  END
$$$$

 OpenBabel12201709243D

 14 14  0  0  0  0  0  0  0  0999 V2000
    1.1017   -0.0798    0.1479 O   0  0  0  0  0  0  0  0  0  0  0  0
    2.4626   -0.0473    0.0230 C   0  0  0  0  0  0  0  0  0  0  0  0
    3.1366    1.1718   -0.0262 C   0  0  0  0  0  0  0  0  0  0  0  0
    4.5270    1.1868   -0.1559 C   0  0  0  0  0  0  0  0  0  0  0  0
    5.2369   -0.0128   -0.2352 C   0  0  0  0  0  0  0  0  0  0  0  0
    4.5602   -1.2332   -0.1849 C   0  0  0  0  0  0  0  0  0  0  0  0
    3.1721   -1.2463   -0.0560 C   0  0  0  0  0  0  0  0  0  0  0  0
    2.4940   -2.4320   -0.0070 O   0  0  0  0  0  0  0  0  0  0  0  0
    0.7665    0.8290    0.1747 H   0  0  0  0  0  0  0  0  0  0  0  0
    2.5998    2.1129    0.0348 H   0  0  0  0  0  0  0  0  0  0  0  0
    5.0582    2.1345   -0.1952 H   0  0  0  0  0  0  0  0  0  0  0  0
    6.3195    0.0037   -0.3360 H   0  0  0  0  0  0  0  0  0  0  0  0
    5.1268   -2.1567   -0.2473 H   0  0  0  0  0  0  0  0  0  0  0  0
    3.1280   -3.1606   -0.0856 H   0  0  0  0  0  0  0  0  0  0  0  0
  1  2  1  0  0  0  0
  1  9  1  0  0  0  0
  2  3  2  0  0  0  0
  2  7  1  0  0  0  0
  3  4  1  0  0  0  0
  3 10  1  0  0  0  0
  4  5  2  0  0  0  0
  4 11  1  0  0  0  0
  5  6  1  0  0  0  0
  5 12  1  0  0  0  0
  6  7  2  0  0  0  0
  6 13  1  0  0  0  0
  7  8  1  0  0  0  0
  8 14  1  0  0  0  0
M  END
$$$$

 OpenBabel12201709243D

 13 13  0  0  0  0  0  0  0  0999 V2000
    1.1230    0.0184    0.0945 O   0  0  0  0  0  0  0  0  0  0  0  0
    2.4833    0.0387   -0.0416 C   0  0  0  0  0  0  0  0  0  0  0  0
    3.1553    1.2600   -0.1006 C   0  0  0  0  0  0  0  0  0  0  0  0
    4.5446    1.2763   -0.2430 C   0  0  0  0  0  0  0  0  0  0  0  0
    5.2506    0.0753   -0.3249 C   0  0  0  0  0  0  0  0  0  0  0  0
    6.9618    0.1057   -0.5031 Cl  0  0  0  0  0  0  0  0  0  0  0  0
    4.5838   -1.1464   -0.2643 C   0  0  0  0  0  0  0  0  0  0  0  0
    3.1960   -1.1637   -0.1218 C   0  0  0  0  0  0  0  0  0  0  0  0
    2.3939   -2.6903   -0.0499 Cl  0  0  0  0  0  0  0  0  0  0  0  0
    0.7825    0.9273    0.1146 H   0  0  0  0  0  0  0  0  0  0  0  0
    2.6189    2.2022   -0.0374 H   0  0  0  0  0  0  0  0  0  0  0  0
    5.0713    2.2265   -0.2897 H   0  0  0  0  0  0  0  0  0  0  0  0
    5.1391   -2.0778   -0.3283 H   0  0  0  0  0  0  0  0  0  0  0  0
  1  2  1  0  0  0  0
  1 10  1  0  0  0  0
  2  3  2  0  0  0  0
  2  8  1  0  0  0  0
  3  4  1  0  0  0  0
  3 11  1  0  0  0  0
  4  5  2  0  0  0  0
  4 12  1  0  0  0  0
  5  6  1  0  0  0  0
  5  7  1  0  0  0  0
  7  8  2  0  0  0  0
  7 13  1  0  0  0  0
  8  9  1  0  0  0  0
M  END
$$$$

 OpenBabel12201709243D

 21 21  0  0  0  0  0  0  0  0999 V2000
    1.0520    0.2050    0.0978 C   0  0  0  0  0  0  0  0  0  0  0  0
    2.5431    0.1066   -0.0740 C   0  0  0  0  0  0  0  0  0  0  0  0
    3.2730    1.3051   -0.1702 C   0  0  0  0  0  0  0  0  0  0  0  0
    4.6599    1.2984   -0.3282 C   0  0  0  0  0  0  0  0  0  0  0  0
    5.3495    0.0870   -0.4081 C   0  0  0  0  0  0  0  0  0  0  0  0
    4.6504   -1.1166   -0.3300 C   0  0  0  0  0  0  0  0  0  0  0  0
    3.2524   -1.1100   -0.1510 C   0  0  0  0  0  0  0  0  0  0  0  0
    2.6004   -2.3998    0.0073 N   0  0  0  0  0  0  0  0  0  0  0  0
    3.1901   -3.2693    0.6188 O   0  0  0  0  0  0  0  0  0  0  0  0
    1.3879   -2.6989   -0.5845 O   0  0  0  0  0  0  0  0  0  0  0  0
    6.7878    0.1029   -0.6065 N   0  0  0  0  0  0  0  0  0  0  0  0
    7.2845    1.0416   -1.1939 O   0  0  0  0  0  0  0  0  0  0  0  0
    7.6081   -0.9108   -0.1389 O   0  0  0  0  0  0  0  0  0  0  0  0
    0.7438    1.2318    0.3255 H   0  0  0  0  0  0  0  0  0  0  0  0
    0.7100   -0.4284    0.9216 H   0  0  0  0  0  0  0  0  0  0  0  0
    0.5423   -0.0772   -0.8288 H   0  0  0  0  0  0  0  0  0  0  0  0
    2.7648    2.2673   -0.1099 H   0  0  0  0  0  0  0  0  0  0  0  0
    5.1989    2.2433   -0.3894 H   0  0  0  0  0  0  0  0  0  0  0  0
    5.1662   -2.0748   -0.4140 H   0  0  0  0  0  0  0  0  0  0  0  0
    1.2765   -1.9699   -1.2070 H   0  0  0  0  0  0  0  0  0  0  0  0
    7.0224   -1.4119    0.4428 H   0  0  0  0  0  0  0  0  0  0  0  0
  1  2  1  0  0  0  0
  1 14  1  0  0  0  0
  1 15  1  0  0  0  0
  1 16  1  0  0  0  0
  2  3  2  0  0  0  0
  2  7  1  0  0  0  0
  3  4  1  0  0  0  0
  3 17  1  0  0  0  0
  4  5  2  0  0  0  0
  4 18  1  0  0  0  0
  5  6  1  0  0  0  0
  5 11  1  0  0  0  0
  6  7  2  0  0  0  0
  6 19  1  0  0  0  0
  7  8  1  0  0  0  0
  8  9  2  0  0  0  0
  8 10  1  0  0  0  0
 10 20  1  0  0  0  0
 11 12  2  0  0  0  0
 11 13  1  0  0  0  0
 13 21  1  0  0  0  0
M  END
$$$$

 OpenBabel12201709243D

 13 13  0  0  0  0  0  0  0  0999 V2000
    0.9315    0.0906    0.1311 N   0  0  0  0  0  0  0  0  0  0  0  0
    2.2587   -0.0775    0.0577 C   0  0  0  0  0  0  0  0  0  0  0  0
    3.1051    0.9201    0.0050 N   0  0  0  0  0  0  0  0  0  0  0  0
    4.4005    0.4376   -0.0347 C   0  0  0  0  0  0  0  0  0  0  0  0
    4.5193   -0.9354   -0.0264 C   0  0  0  0  0  0  0  0  0  0  0  0
    2.9629   -1.6438    0.0198 S   0  0  0  0  0  0  0  0  0  0  0  0
    5.7329   -1.6419   -0.0501 N   0  0  0  0  0  0  0  0  0  0  0  0
    6.7771   -1.0241   -0.0785 O   0  0  0  0  0  0  0  0  0  0  0  0
    5.7552   -3.0270   -0.0407 O   0  0  0  0  0  0  0  0  0  0  0  0
    0.5821    1.0177   -0.0856 H   0  0  0  0  0  0  0  0  0  0  0  0
    0.3158   -0.6698   -0.1263 H   0  0  0  0  0  0  0  0  0  0  0  0
    5.2275    1.1392   -0.0652 H   0  0  0  0  0  0  0  0  0  0  0  0
    4.8115   -3.2425   -0.0117 H   0  0  0  0  0  0  0  0  0  0  0  0
  1  2  1  0  0  0  0
  1 10  1  0  0  0  0
  1 11  1  0  0  0  0
  2  3  2  0  0  0  0
  2  6  1  0  0  0  0
  3  4  1  0  0  0  0
  4  5  2  0  0  0  0
  4 12  1  0  0  0  0
  5  6  1  0  0  0  0
  5  7  1  0  0  0  0
  7  8  2  0  0  0  0
  7  9  1  0  0  0  0
  9 13  1  0  0  0  0
M  END
$$$$

 OpenBabel12201709243D

 20 20  0  0  0  0  0  0  0  0999 V2000
    1.3259    0.2020   -0.5916 C   0  0  0  0  0  0  0  0  0  0  0  0
    2.4942   -0.1152    0.2207 N   0  0  0  0  0  0  0  0  0  0  0  0
    3.1756   -1.3746   -0.0602 C   0  0  0  0  0  0  0  0  0  0  0  0
    3.1665    0.8905    0.9159 C   0  0  0  0  0  0  0  0  0  0  0  0
    2.7455    2.2322    0.8920 C   0  0  0  0  0  0  0  0  0  0  0  0
    3.4173    3.2405    1.5970 C   0  0  0  0  0  0  0  0  0  0  0  0
    4.5322    2.9310    2.3647 C   0  0  0  0  0  0  0  0  0  0  0  0
    4.9696    1.6152    2.4241 C   0  0  0  0  0  0  0  0  0  0  0  0
    4.2946    0.6154    1.7107 C   0  0  0  0  0  0  0  0  0  0  0  0
    0.8930   -0.6979   -1.0422 H   0  0  0  0  0  0  0  0  0  0  0  0
    1.5826    0.8861   -1.4077 H   0  0  0  0  0  0  0  0  0  0  0  0
    0.5355    0.6462    0.0236 H   0  0  0  0  0  0  0  0  0  0  0  0
    2.5881   -2.0143   -0.7280 H   0  0  0  0  0  0  0  0  0  0  0  0
    3.3275   -1.9465    0.8615 H   0  0  0  0  0  0  0  0  0  0  0  0
    4.1423   -1.2028   -0.5469 H   0  0  0  0  0  0  0  0  0  0  0  0
    1.8809    2.5342    0.3088 H   0  0  0  0  0  0  0  0  0  0  0  0
    3.0623    4.2657    1.5417 H   0  0  0  0  0  0  0  0  0  0  0  0
    5.0536    3.7091    2.9145 H   0  0  0  0  0  0  0  0  0  0  0  0
    5.8346    1.3556    3.0285 H   0  0  0  0  0  0  0  0  0  0  0  0
    4.6715   -0.3984    1.8074 H   0  0  0  0  0  0  0  0  0  0  0  0
  1  2  1  0  0  0  0
  1 10  1  0  0  0  0
  1 11  1  0  0  0  0
  1 12  1  0  0  0  0
  2  3  1  0  0  0  0
  2  4  1  0  0  0  0
  3 13  1  0  0  0  0
  3 14  1  0  0  0  0
  3 15  1  0  0  0  0
  4  5  2  0  0  0  0
  4  9  1  0  0  0  0
  5  6  1  0  0  0  0
  5 16  1  0  0  0  0
  6  7  2  0  0  0  0
  6 17  1  0  0  0  0
  7  8  1  0  0  0  0
  7 18  1  0  0  0  0
  8  9  2  0  0  0  0
  8 19  1  0  0  0  0
  9 20  1  0  0  0  0
M  END
$$$$

 OpenBabel12201709243D

 38 37  0  0  1  0  0  0  0  0999 V2000
    1.4731   -0.8963    3.7193 C   0  0  0  0  0  0  0  0  0  0  0  0
    2.1702   -0.0477    4.7675 C   0  0  0  0  0  0  0  0  0  0  0  0
    2.9807    0.9120    4.0803 O   0  0  0  0  0  0  0  0  0  0  0  0
    4.2389    0.5080    3.7626 C   0  0  0  0  0  0  0  0  0  0  0  0
    4.8064   -0.4906    4.1839 O   0  0  0  0  0  0  0  0  0  0  0  0
    4.7670    1.3591    2.6411 C   0  0  0  0  0  0  0  0  0  0  0  0
    6.2896    1.4198    2.6633 C   0  0  3  0  0  0  0  0  0  0  0  0
    6.9330    2.3052    1.1857 S   0  0  0  0  0  0  0  0  0  0  0  0
    6.3407    1.2472   -0.5534 P   0  0  0  0  0  0  0  0  0  0  0  0
    4.6685    2.4072   -0.7307 S   0  0  0  0  0  0  0  0  0  0  0  0
    7.6137    1.8590   -1.4189 O   0  0  0  0  0  0  0  0  0  0  0  0
    7.3901    2.7263   -2.5206 C   0  0  0  0  0  0  0  0  0  0  0  0
    5.8574    0.3839   -1.9725 O   0  0  0  0  0  0  0  0  0  0  0  0
    5.2045   -0.8515   -1.7408 C   0  0  0  0  0  0  0  0  0  0  0  0
    6.7378    2.2009    3.8954 C   0  0  0  0  0  0  0  0  0  0  0  0
    5.9779    2.7210    4.7030 O   0  0  0  0  0  0  0  0  0  0  0  0
    8.1000    2.2936    3.9459 O   0  0  0  0  0  0  0  0  0  0  0  0
    8.5991    3.3587    4.7605 C   0  0  0  0  0  0  0  0  0  0  0  0
    8.5642    4.6496    3.9579 C   0  0  0  0  0  0  0  0  0  0  0  0
    0.8233   -1.6420    4.1830 H   0  0  0  0  0  0  0  0  0  0  0  0
    2.2038   -1.4061    3.0816 H   0  0  0  0  0  0  0  0  0  0  0  0
    0.8724   -0.2623    3.0576 H   0  0  0  0  0  0  0  0  0  0  0  0
    2.7568   -0.6608    5.4603 H   0  0  0  0  0  0  0  0  0  0  0  0
    1.4309    0.5033    5.3576 H   0  0  0  0  0  0  0  0  0  0  0  0
    4.3286    2.3621    2.7124 H   0  0  0  0  0  0  0  0  0  0  0  0
    4.4015    0.8700    1.7339 H   0  0  0  0  0  0  0  0  0  0  0  0
    6.7306    0.4201    2.7062 H   0  0  0  0  0  0  0  0  0  0  0  0
    8.3381    2.8666   -3.0461 H   0  0  0  0  0  0  0  0  0  0  0  0
    7.0447    3.7036   -2.1725 H   0  0  0  0  0  0  0  0  0  0  0  0
    6.6732    2.3029   -3.2299 H   0  0  0  0  0  0  0  0  0  0  0  0
    4.7718   -1.1959   -2.6841 H   0  0  0  0  0  0  0  0  0  0  0  0
    4.4024   -0.7384   -1.0068 H   0  0  0  0  0  0  0  0  0  0  0  0
    5.9287   -1.5890   -1.3879 H   0  0  0  0  0  0  0  0  0  0  0  0
    9.6319    3.1119    5.0227 H   0  0  0  0  0  0  0  0  0  0  0  0
    8.0366    3.4502    5.6963 H   0  0  0  0  0  0  0  0  0  0  0  0
    9.1554    4.5454    3.0411 H   0  0  0  0  0  0  0  0  0  0  0  0
    8.9583    5.4866    4.5393 H   0  0  0  0  0  0  0  0  0  0  0  0
    7.5431    4.8928    3.6450 H   0  0  0  0  0  0  0  0  0  0  0  0
  1  2  1  0  0  0  0
  1 20  1  0  0  0  0
  1 21  1  0  0  0  0
  1 22  1  0  0  0  0
  2  3  1  0  0  0  0
  2 23  1  0  0  0  0
  2 24  1  0  0  0  0
  3  4  1  0  0  0  0
  4  5  2  0  0  0  0
  4  6  1  0  0  0  0
  6  7  1  0  0  0  0
  6 25  1  0  0  0  0
  6 26  1  0  0  0  0
  7  8  1  0  0  0  0
  7 15  1  0  0  0  0
  7 27  1  0  0  0  0
  8  9  1  0  0  0  0
  9 10  2  0  0  0  0
  9 11  1  0  0  0  0
  9 13  1  0  0  0  0
 11 12  1  0  0  0  0
 12 28  1  0  0  0  0
 12 29  1  0  0  0  0
 12 30  1  0  0  0  0
 13 14  1  0  0  0  0
 14 31  1  0  0  0  0
 14 32  1  0  0  0  0
 14 33  1  0  0  0  0
 15 16  2  0  0  0  0
 15 17  1  0  0  0  0
 17 18  1  0  0  0  0
 18 19  1  0  0  0  0
 18 34  1  0  0  0  0
 18 35  1  0  0  0  0
 19 36  1  0  0  0  0
 19 37  1  0  0  0  0
 19 38  1  0  0  0  0
M  END
$$$$

 OpenBabel12201709243D

 27 27  0  0  0  0  0  0  0  0999 V2000
    0.9472   -1.1758    3.1091 C   0  0  0  0  0  0  0  0  0  0  0  0
    2.3176   -1.0815    2.4565 C   0  0  0  0  0  0  0  0  0  0  0  0
    3.3124   -0.4247    3.4023 C   0  0  0  0  0  0  0  0  0  0  0  0
    4.6279   -0.3992    2.8324 O   0  0  0  0  0  0  0  0  0  0  0  0
    5.1005    0.8136    2.4604 C   0  0  0  0  0  0  0  0  0  0  0  0
    4.4456    1.8338    2.3127 O   0  0  0  0  0  0  0  0  0  0  0  0
    6.5848    0.7748    2.3640 C   0  0  0  0  0  0  0  0  0  0  0  0
    7.2643    1.9791    2.1043 C   0  0  0  0  0  0  0  0  0  0  0  0
    8.6572    1.9948    2.1110 C   0  0  0  0  0  0  0  0  0  0  0  0
    9.3721    3.1380    1.8887 O   0  0  0  0  0  0  0  0  0  0  0  0
    9.3695    0.8268    2.3633 C   0  0  0  0  0  0  0  0  0  0  0  0
   10.7370    0.8368    2.3935 O   0  0  0  0  0  0  0  0  0  0  0  0
    8.6987   -0.3634    2.6054 C   0  0  0  0  0  0  0  0  0  0  0  0
    9.4003   -1.5032    2.8703 O   0  0  0  0  0  0  0  0  0  0  0  0
    7.3115   -0.4053    2.6047 C   0  0  0  0  0  0  0  0  0  0  0  0
    0.2290   -1.6530    2.4361 H   0  0  0  0  0  0  0  0  0  0  0  0
    0.5676   -0.1807    3.3640 H   0  0  0  0  0  0  0  0  0  0  0  0
    0.9941   -1.7665    4.0304 H   0  0  0  0  0  0  0  0  0  0  0  0
    2.2520   -0.5113    1.5228 H   0  0  0  0  0  0  0  0  0  0  0  0
    2.6692   -2.0827    2.1800 H   0  0  0  0  0  0  0  0  0  0  0  0
    3.3930   -1.0182    4.3196 H   0  0  0  0  0  0  0  0  0  0  0  0
    2.9743    0.5744    3.6988 H   0  0  0  0  0  0  0  0  0  0  0  0
    6.6980    2.8896    1.9275 H   0  0  0  0  0  0  0  0  0  0  0  0
    8.7460    3.8700    1.7441 H   0  0  0  0  0  0  0  0  0  0  0  0
   10.9769    1.7689    2.2110 H   0  0  0  0  0  0  0  0  0  0  0  0
   10.3398   -1.2302    2.8420 H   0  0  0  0  0  0  0  0  0  0  0  0
    6.8143   -1.3482    2.8156 H   0  0  0  0  0  0  0  0  0  0  0  0
  1  2  1  0  0  0  0
  1 16  1  0  0  0  0
  1 17  1  0  0  0  0
  1 18  1  0  0  0  0
  2  3  1  0  0  0  0
  2 19  1  0  0  0  0
  2 20  1  0  0  0  0
  3  4  1  0  0  0  0
  3 21  1  0  0  0  0
  3 22  1  0  0  0  0
  4  5  1  0  0  0  0
  5  6  2  0  0  0  0
  5  7  1  0  0  0  0
  7  8  2  0  0  0  0
  7 15  1  0  0  0  0
  8  9  1  0  0  0  0
  8 23  1  0  0  0  0
  9 10  1  0  0  0  0
  9 11  2  0  0  0  0
 10 24  1  0  0  0  0
 11 12  1  0  0  0  0
 11 13  1  0  0  0  0
 12 25  1  0  0  0  0
 13 14  1  0  0  0  0
 13 15  2  0  0  0  0
 14 26  1  0  0  0  0
 15 27  1  0  0  0  0
M  END
$$$$

 OpenBabel12201709243D

 18 18  0  0  0  0  0  0  0  0999 V2000
    1.0818    0.0549    0.3926 N   0  0  0  0  0  0  0  0  0  0  0  0
    2.4525    0.0615    0.0839 C   0  0  0  0  0  0  0  0  0  0  0  0
    3.1581    1.2665    0.0465 C   0  0  0  0  0  0  0  0  0  0  0  0
    4.5438    1.2747   -0.1410 C   0  0  0  0  0  0  0  0  0  0  0  0
    5.2358    0.0616   -0.2398 C   0  0  0  0  0  0  0  0  0  0  0  0
    4.5496   -1.1559   -0.1631 C   0  0  0  0  0  0  0  0  0  0  0  0
    3.1689   -1.1432    0.0140 C   0  0  0  0  0  0  0  0  0  0  0  0
    2.4627   -2.3165    0.0894 O   0  0  0  0  0  0  0  0  0  0  0  0
    6.6720    0.0475   -0.4403 N   0  0  0  0  0  0  0  0  0  0  0  0
    7.1736   -0.8860   -1.0331 O   0  0  0  0  0  0  0  0  0  0  0  0
    7.4912    1.0514    0.0550 O   0  0  0  0  0  0  0  0  0  0  0  0
    0.5644    0.8279   -0.0097 H   0  0  0  0  0  0  0  0  0  0  0  0
    0.6764   -0.8548    0.1699 H   0  0  0  0  0  0  0  0  0  0  0  0
    2.6272    2.2088    0.1581 H   0  0  0  0  0  0  0  0  0  0  0  0
    5.0516    2.2323   -0.2201 H   0  0  0  0  0  0  0  0  0  0  0  0
    5.0947   -2.0925   -0.2441 H   0  0  0  0  0  0  0  0  0  0  0  0
    3.0885   -3.0576    0.0366 H   0  0  0  0  0  0  0  0  0  0  0  0
    6.8999    1.5307    0.6491 H   0  0  0  0  0  0  0  0  0  0  0  0
  1  2  1  0  0  0  0
  1 12  1  0  0  0  0
  1 13  1  0  0  0  0
  2  3  2  0  0  0  0
  2  7  1  0  0  0  0
  3  4  1  0  0  0  0
  3 14  1  0  0  0  0
  4  5  2  0  0  0  0
  4 15  1  0  0  0  0
  5  6  1  0  0  0  0
  5  9  1  0  0  0  0
  6  7  2  0  0  0  0
  6 16  1  0  0  0  0
  7  8  1  0  0  0  0
  8 17  1  0  0  0  0
  9 10  2  0  0  0  0
  9 11  1  0  0  0  0
 11 18  1  0  0  0  0
M  END
$$$$

 OpenBabel12201709243D

 40 41  0  0  0  0  0  0  0  0999 V2000
    1.7404    0.4868    1.9552 S   0  0  0  0  0  0  0  0  0  0  0  0
    2.9046    0.2801    0.7799 C   0  0  0  0  0  0  0  0  0  0  0  0
    3.0791   -0.9886    0.2984 N   0  0  0  0  0  0  0  0  0  0  0  0
    4.3331   -1.6016   -0.1592 C   0  0  0  0  0  0  0  0  0  0  0  0
    5.3571   -1.6726    0.9810 C   0  0  0  0  0  0  0  0  0  0  0  0
    4.8546   -2.5576    2.1204 C   0  0  0  0  0  0  0  0  0  0  0  0
    4.5653   -3.9745    1.6389 C   0  0  0  0  0  0  0  0  0  0  0  0
    3.6982   -4.0338    0.3804 C   0  0  0  0  0  0  0  0  0  0  0  0
    4.0853   -3.0184   -0.7029 C   0  0  0  0  0  0  0  0  0  0  0  0
    3.7357    1.2378    0.2661 N   0  0  0  0  0  0  0  0  0  0  0  0
    3.7169    2.6706    0.6059 C   0  0  0  0  0  0  0  0  0  0  0  0
    5.0574    3.3426    0.2817 C   0  0  0  0  0  0  0  0  0  0  0  0
    5.3153    3.5036   -1.2157 C   0  0  0  0  0  0  0  0  0  0  0  0
    4.1342    4.0830   -1.9927 C   0  0  0  0  0  0  0  0  0  0  0  0
    2.7845    3.4852   -1.6104 C   0  0  0  0  0  0  0  0  0  0  0  0
    2.5798    3.4195   -0.1009 C   0  0  0  0  0  0  0  0  0  0  0  0
    2.4357   -1.6268    0.7513 H   0  0  0  0  0  0  0  0  0  0  0  0
    4.7351   -0.9802   -0.9672 H   0  0  0  0  0  0  0  0  0  0  0  0
    5.5792   -0.6714    1.3660 H   0  0  0  0  0  0  0  0  0  0  0  0
    6.3005   -2.0803    0.5971 H   0  0  0  0  0  0  0  0  0  0  0  0
    3.9471   -2.1276    2.5606 H   0  0  0  0  0  0  0  0  0  0  0  0
    5.6006   -2.5843    2.9215 H   0  0  0  0  0  0  0  0  0  0  0  0
    4.0724   -4.5348    2.4427 H   0  0  0  0  0  0  0  0  0  0  0  0
    5.5176   -4.4821    1.4446 H   0  0  0  0  0  0  0  0  0  0  0  0
    2.6498   -3.8797    0.6600 H   0  0  0  0  0  0  0  0  0  0  0  0
    3.7553   -5.0454   -0.0401 H   0  0  0  0  0  0  0  0  0  0  0  0
    3.3041   -3.0007   -1.4725 H   0  0  0  0  0  0  0  0  0  0  0  0
    5.0016   -3.3710   -1.1947 H   0  0  0  0  0  0  0  0  0  0  0  0
    4.1376    0.9998   -0.6237 H   0  0  0  0  0  0  0  0  0  0  0  0
    3.5651    2.7453    1.6882 H   0  0  0  0  0  0  0  0  0  0  0  0
    5.8842    2.7812    0.7341 H   0  0  0  0  0  0  0  0  0  0  0  0
    5.0663    4.3385    0.7430 H   0  0  0  0  0  0  0  0  0  0  0  0
    5.5870    2.5318   -1.6412 H   0  0  0  0  0  0  0  0  0  0  0  0
    6.1860    4.1581   -1.3576 H   0  0  0  0  0  0  0  0  0  0  0  0
    4.3030    3.9291   -3.0661 H   0  0  0  0  0  0  0  0  0  0  0  0
    4.0991    5.1665   -1.8364 H   0  0  0  0  0  0  0  0  0  0  0  0
    2.6928    2.4786   -2.0375 H   0  0  0  0  0  0  0  0  0  0  0  0
    1.9845    4.0869   -2.0566 H   0  0  0  0  0  0  0  0  0  0  0  0
    1.6118    2.9551    0.1073 H   0  0  0  0  0  0  0  0  0  0  0  0
    2.5266    4.4422    0.2972 H   0  0  0  0  0  0  0  0  0  0  0  0
  1  2  2  0  0  0  0
  2  3  1  0  0  0  0
  2 10  1  0  0  0  0
  3  4  1  0  0  0  0
  3 17  1  0  0  0  0
  4  5  1  0  0  0  0
  4  9  1  0  0  0  0
  4 18  1  0  0  0  0
  5  6  1  0  0  0  0
  5 19  1  0  0  0  0
  5 20  1  0  0  0  0
  6  7  1  0  0  0  0
  6 21  1  0  0  0  0
  6 22  1  0  0  0  0
  7  8  1  0  0  0  0
  7 23  1  0  0  0  0
  7 24  1  0  0  0  0
  8  9  1  0  0  0  0
  8 25  1  0  0  0  0
  8 26  1  0  0  0  0
  9 27  1  0  0  0  0
  9 28  1  0  0  0  0
 10 11  1  0  0  0  0
 10 29  1  0  0  0  0
 11 12  1  0  0  0  0
 11 16  1  0  0  0  0
 11 30  1  0  0  0  0
 12 13  1  0  0  0  0
 12 31  1  0  0  0  0
 12 32  1  0  0  0  0
 13 14  1  0  0  0  0
 13 33  1  0  0  0  0
 13 34  1  0  0  0  0
 14 15  1  0  0  0  0
 14 35  1  0  0  0  0
 14 36  1  0  0  0  0
 15 16  1  0  0  0  0
 15 37  1  0  0  0  0
 15 38  1  0  0  0  0
 16 39  1  0  0  0  0
 16 40  1  0  0  0  0
M  END
$$$$

 OpenBabel12201709243D

 17 17  0  0  0  0  0  0  0  0999 V2000
    1.4092   -0.9166    0.7852 S   0  0  0  0  0  0  0  0  0  0  0  0
    2.6685   -0.4783    0.2534 C   0  0  0  0  0  0  0  0  0  0  0  0
    3.1020   -0.9413   -1.0319 N   0  0  0  0  0  0  0  0  0  0  0  0
    4.2334   -0.3342   -1.7009 C   0  0  0  0  0  0  0  0  0  0  0  0
    3.7163    0.7479   -2.6542 C   0  0  0  0  0  0  0  0  0  0  0  0
    4.5973    1.8934   -2.5810 N   0  0  0  0  0  0  0  0  0  0  0  0
    4.2084    3.1045   -1.9229 C   0  0  0  0  0  0  0  0  0  0  0  0
    5.1770    4.1436   -1.7079 S   0  0  0  0  0  0  0  0  0  0  0  0
    2.5165    3.3948   -1.3549 S   0  0  0  0  0  0  0  0  0  0  0  0
    2.5883    2.6436    0.7955 Zn  0  0  0  0  0  0  0  0  0  0  0  0
    3.6511    0.6828    1.2341 S   0  0  0  0  0  0  0  0  0  0  0  0
    2.4806   -1.5455   -1.5914 H   0  0  0  0  0  0  0  0  0  0  0  0
    4.8855   -1.0795   -2.2052 H   0  0  0  0  0  0  0  0  0  0  0  0
    4.8888    0.1441   -0.9487 H   0  0  0  0  0  0  0  0  0  0  0  0
    2.7026    1.0355   -2.3235 H   0  0  0  0  0  0  0  0  0  0  0  0
    3.5937    0.3670   -3.6902 H   0  0  0  0  0  0  0  0  0  0  0  0
    5.5700    1.7740   -2.9028 H   0  0  0  0  0  0  0  0  0  0  0  0
  1  2  2  0  0  0  0
  2  3  1  0  0  0  0
  2 11  1  0  0  0  0
  3  4  1  0  0  0  0
  3 12  1  0  0  0  0
  4  5  1  0  0  0  0
  4 13  1  0  0  0  0
  4 14  1  0  0  0  0
  5  6  1  0  0  0  0
  5 15  1  0  0  0  0
  5 16  1  0  0  0  0
  6  7  1  0  0  0  0
  6 17  1  0  0  0  0
  7  8  2  0  0  0  0
  7  9  1  0  0  0  0
  9 10  1  0  0  0  0
 10 11  1  0  0  0  0
M  END
$$$$

 OpenBabel12201709243D

 34 33  0  0  1  0  0  0  0  0999 V2000
    2.4689   -1.5703   -0.0102 C   0  0  0  0  0  0  0  0  0  0  0  0
    2.0680   -0.1477    0.3557 C   0  0  3  0  0  0  0  0  0  0  0  0
    0.7172   -0.1630    0.8372 O   0  0  0  0  0  0  0  0  0  0  0  0
    2.9979    0.4933    1.4217 C   0  0  0  0  0  0  0  0  0  0  0  0
    4.4395    0.6550    1.0997 N   0  0  0  0  0  0  0  0  0  0  0  0
    4.5840    1.5128   -0.1086 C   0  0  0  0  0  0  0  0  0  0  0  0
    6.0106    1.8242   -0.6312 C   0  0  3  0  0  0  0  0  0  0  0  0
    6.7920    0.5922   -1.0676 C   0  0  0  0  0  0  0  0  0  0  0  0
    5.9070    2.7093   -1.7560 O   0  0  0  0  0  0  0  0  0  0  0  0
    5.1328    1.2891    2.2532 C   0  0  0  0  0  0  0  0  0  0  0  0
    5.0808    0.5812    3.6329 C   0  0  3  0  0  0  0  0  0  0  0  0
    5.6837   -0.8177    3.6309 C   0  0  0  0  0  0  0  0  0  0  0  0
    5.7976    1.3790    4.5855 O   0  0  0  0  0  0  0  0  0  0  0  0
    1.6338   -2.1031   -0.4784 H   0  0  0  0  0  0  0  0  0  0  0  0
    2.7537   -2.1448    0.8773 H   0  0  0  0  0  0  0  0  0  0  0  0
    3.3155   -1.5730   -0.7038 H   0  0  0  0  0  0  0  0  0  0  0  0
    2.0398    0.4624   -0.5510 H   0  0  0  0  0  0  0  0  0  0  0  0
    0.7278   -0.2263    1.8057 H   0  0  0  0  0  0  0  0  0  0  0  0
    2.9051   -0.1416    2.3113 H   0  0  0  0  0  0  0  0  0  0  0  0
    2.5657    1.4612    1.7080 H   0  0  0  0  0  0  0  0  0  0  0  0
    4.0722    2.4714    0.0571 H   0  0  0  0  0  0  0  0  0  0  0  0
    4.0584    1.0416   -0.9470 H   0  0  0  0  0  0  0  0  0  0  0  0
    6.5814    2.3689    0.1257 H   0  0  0  0  0  0  0  0  0  0  0  0
    6.3499    0.1388   -1.9634 H   0  0  0  0  0  0  0  0  0  0  0  0
    6.8475   -0.1549   -0.2771 H   0  0  0  0  0  0  0  0  0  0  0  0
    7.8137    0.8822   -1.3434 H   0  0  0  0  0  0  0  0  0  0  0  0
    5.4796    2.2203   -2.4824 H   0  0  0  0  0  0  0  0  0  0  0  0
    4.7581    2.3129    2.3933 H   0  0  0  0  0  0  0  0  0  0  0  0
    6.1963    1.3975    2.0126 H   0  0  0  0  0  0  0  0  0  0  0  0
    4.0537    0.5327    4.0061 H   0  0  0  0  0  0  0  0  0  0  0  0
    6.6640   -0.8226    3.1427 H   0  0  0  0  0  0  0  0  0  0  0  0
    5.0352   -1.5333    3.1174 H   0  0  0  0  0  0  0  0  0  0  0  0
    5.8444   -1.1682    4.6575 H   0  0  0  0  0  0  0  0  0  0  0  0
    6.7414    1.3440    4.3545 H   0  0  0  0  0  0  0  0  0  0  0  0
  1  2  1  0  0  0  0
  1 14  1  0  0  0  0
  1 15  1  0  0  0  0
  1 16  1  0  0  0  0
  2  3  1  0  0  0  0
  2  4  1  0  0  0  0
  2 17  1  0  0  0  0
  3 18  1  0  0  0  0
  4  5  1  0  0  0  0
  4 19  1  0  0  0  0
  4 20  1  0  0  0  0
  5  6  1  0  0  0  0
  5 10  1  0  0  0  0
  6  7  1  0  0  0  0
  6 21  1  0  0  0  0
  6 22  1  0  0  0  0
  7  8  1  0  0  0  0
  7  9  1  0  0  0  0
  7 23  1  0  0  0  0
  8 24  1  0  0  0  0
  8 25  1  0  0  0  0
  8 26  1  0  0  0  0
  9 27  1  0  0  0  0
 10 11  1  0  0  0  0
 10 28  1  0  0  0  0
 10 29  1  0  0  0  0
 11 12  1  0  0  0  0
 11 13  1  0  0  0  0
 11 30  1  0  0  0  0
 12 31  1  0  0  0  0
 12 32  1  0  0  0  0
 12 33  1  0  0  0  0
 13 34  1  0  0  0  0
M  END
$$$$

 OpenBabel12201709243D

 25 25  0  0  0  0  0  0  0  0999 V2000
    1.0682   -0.0620    0.1391 C   0  0  0  0  0  0  0  0  0  0  0  0
    2.5877   -0.1163    0.1123 C   0  0  0  0  0  0  0  0  0  0  0  0
    3.0477   -1.2822    0.8453 N   0  0  0  0  0  0  0  0  0  0  0  0
    4.4242   -1.4454    0.9237 C   0  0  0  0  0  0  0  0  0  0  0  0
    5.2161   -0.3897    0.8855 N   0  0  0  0  0  0  0  0  0  0  0  0
    6.4981   -0.6878    1.0065 C   0  0  0  0  0  0  0  0  0  0  0  0
    7.5813    0.6340    0.9565 Cl  0  0  0  0  0  0  0  0  0  0  0  0
    7.0501   -1.8817    1.1424 N   0  0  0  0  0  0  0  0  0  0  0  0
    6.1717   -2.8654    1.1725 C   0  0  0  0  0  0  0  0  0  0  0  0
    6.7149   -4.1233    1.3716 N   0  0  0  0  0  0  0  0  0  0  0  0
    6.0120   -5.2487    0.7909 C   0  0  0  0  0  0  0  0  0  0  0  0
    6.7939   -6.5219    1.0839 C   0  0  0  0  0  0  0  0  0  0  0  0
    4.8572   -2.6969    1.0460 N   0  0  0  0  0  0  0  0  0  0  0  0
    0.7091    0.8192   -0.4019 H   0  0  0  0  0  0  0  0  0  0  0  0
    0.6955   -0.0081    1.1678 H   0  0  0  0  0  0  0  0  0  0  0  0
    0.6336   -0.9509   -0.3294 H   0  0  0  0  0  0  0  0  0  0  0  0
    2.9714    0.8065    0.5635 H   0  0  0  0  0  0  0  0  0  0  0  0
    2.9290   -0.1586   -0.9288 H   0  0  0  0  0  0  0  0  0  0  0  0
    2.6442   -2.1733    0.5797 H   0  0  0  0  0  0  0  0  0  0  0  0
    7.7065   -4.0614    1.1663 H   0  0  0  0  0  0  0  0  0  0  0  0
    5.9153   -5.1280   -0.2945 H   0  0  0  0  0  0  0  0  0  0  0  0
    5.0076   -5.3454    1.2195 H   0  0  0  0  0  0  0  0  0  0  0  0
    7.7791   -6.4938    0.6053 H   0  0  0  0  0  0  0  0  0  0  0  0
    6.2576   -7.3991    0.7098 H   0  0  0  0  0  0  0  0  0  0  0  0
    6.9517   -6.6480    2.1606 H   0  0  0  0  0  0  0  0  0  0  0  0
  1  2  1  0  0  0  0
  1 14  1  0  0  0  0
  1 15  1  0  0  0  0
  1 16  1  0  0  0  0
  2  3  1  0  0  0  0
  2 17  1  0  0  0  0
  2 18  1  0  0  0  0
  3  4  1  0  0  0  0
  3 19  1  0  0  0  0
  4  5  2  0  0  0  0
  4 13  1  0  0  0  0
  5  6  1  0  0  0  0
  6  7  1  0  0  0  0
  6  8  2  0  0  0  0
  8  9  1  0  0  0  0
  9 10  1  0  0  0  0
  9 13  2  0  0  0  0
 10 11  1  0  0  0  0
 10 20  1  0  0  0  0
 11 12  1  0  0  0  0
 11 21  1  0  0  0  0
 11 22  1  0  0  0  0
 12 23  1  0  0  0  0
 12 24  1  0  0  0  0
 12 25  1  0  0  0  0
M  END
$$$$

 OpenBabel12201709243D

 21 22  0  0  1  0  0  0  0  0999 V2000
    0.9567   -0.3728    0.4870 C   0  0  0  0  0  0  0  0  0  0  0  0
    0.4429    0.8360    1.0501 O   0  0  0  0  0  0  0  0  0  0  0  0
   -0.9190    0.9055    1.1747 C   0  0  0  0  0  0  0  0  0  0  0  0
   -1.7825   -0.1886    1.2510 C   0  0  0  0  0  0  0  0  0  0  0  0
   -3.1598    0.0107    1.3819 C   0  0  0  0  0  0  0  0  0  0  0  0
   -3.6790    1.3026    1.4416 C   0  0  0  0  0  0  0  0  0  0  0  0
   -2.8196    2.3966    1.3868 C   0  0  0  0  0  0  0  0  0  0  0  0
   -1.4426    2.1971    1.2607 C   0  0  0  0  0  0  0  0  0  0  0  0
    2.4458   -0.2740    0.4341 C   0  0  3  0  0  0  0  0  0  0  0  0
    3.2648   -0.2947    1.6988 C   0  0  0  0  0  0  0  0  0  0  0  0
    3.1410   -1.4523    0.8617 O   0  0  0  0  0  0  0  0  0  0  0  0
    0.5672   -0.5006   -0.5302 H   0  0  0  0  0  0  0  0  0  0  0  0
    0.6786   -1.2371    1.0981 H   0  0  0  0  0  0  0  0  0  0  0  0
   -1.4221   -1.2103    1.2300 H   0  0  0  0  0  0  0  0  0  0  0  0
   -3.8267   -0.8462    1.4409 H   0  0  0  0  0  0  0  0  0  0  0  0
   -4.7509    1.4538    1.5376 H   0  0  0  0  0  0  0  0  0  0  0  0
   -3.2188    3.4063    1.4382 H   0  0  0  0  0  0  0  0  0  0  0  0
   -0.7758    3.0551    1.2206 H   0  0  0  0  0  0  0  0  0  0  0  0
    2.8204    0.2632   -0.4264 H   0  0  0  0  0  0  0  0  0  0  0  0
    2.7405   -0.2900    2.6478 H   0  0  0  0  0  0  0  0  0  0  0  0
    4.2175    0.2179    1.7042 H   0  0  0  0  0  0  0  0  0  0  0  0
  1  2  1  0  0  0  0
  1  9  1  0  0  0  0
  1 12  1  0  0  0  0
  1 13  1  0  0  0  0
  2  3  1  0  0  0  0
  3  4  2  0  0  0  0
  3  8  1  0  0  0  0
  4  5  1  0  0  0  0
  4 14  1  0  0  0  0
  5  6  2  0  0  0  0
  5 15  1  0  0  0  0
  6  7  1  0  0  0  0
  6 16  1  0  0  0  0
  7  8  2  0  0  0  0
  7 17  1  0  0  0  0
  8 18  1  0  0  0  0
  9 10  1  0  0  0  0
  9 11  1  0  0  0  0
  9 19  1  0  0  0  0
 10 11  1  0  0  0  0
 10 20  1  0  0  0  0
 10 21  1  0  0  0  0
M  END
$$$$

 OpenBabel12201709243D

 26 27  0  0  0  0  0  0  0  0999 V2000
    1.0819    0.0532    0.1010 N   0  0  0  0  0  0  0  0  0  0  0  0
    0.2995    1.1600   -0.1198 N   0  0  0  0  0  0  0  0  0  0  0  0
   -1.1079    1.1316    0.0698 C   0  0  0  0  0  0  0  0  0  0  0  0
   -1.7715    2.3141    0.4322 C   0  0  0  0  0  0  0  0  0  0  0  0
   -3.1584    2.3386    0.6015 C   0  0  0  0  0  0  0  0  0  0  0  0
   -3.9064    1.1868    0.3769 C   0  0  0  0  0  0  0  0  0  0  0  0
   -3.2690    0.0170   -0.0296 C   0  0  0  0  0  0  0  0  0  0  0  0
   -1.8799   -0.0066   -0.1920 C   0  0  0  0  0  0  0  0  0  0  0  0
    2.4826    0.0463   -0.1011 C   0  0  0  0  0  0  0  0  0  0  0  0
    3.1940    1.1801   -0.5129 C   0  0  0  0  0  0  0  0  0  0  0  0
    4.5878    1.1517   -0.6224 C   0  0  0  0  0  0  0  0  0  0  0  0
    5.2907   -0.0059   -0.2973 C   0  0  0  0  0  0  0  0  0  0  0  0
    4.6007   -1.1335    0.1406 C   0  0  0  0  0  0  0  0  0  0  0  0
    3.2072   -1.1041    0.2416 C   0  0  0  0  0  0  0  0  0  0  0  0
    0.6769   -0.8442   -0.1614 H   0  0  0  0  0  0  0  0  0  0  0  0
    0.6796    1.9908    0.3385 H   0  0  0  0  0  0  0  0  0  0  0  0
   -1.2092    3.2283    0.6028 H   0  0  0  0  0  0  0  0  0  0  0  0
   -3.6514    3.2582    0.9054 H   0  0  0  0  0  0  0  0  0  0  0  0
   -4.9853    1.2034    0.5069 H   0  0  0  0  0  0  0  0  0  0  0  0
   -3.8526   -0.8780   -0.2284 H   0  0  0  0  0  0  0  0  0  0  0  0
   -1.4172   -0.9246   -0.5377 H   0  0  0  0  0  0  0  0  0  0  0  0
    2.6701    2.0936   -0.7776 H   0  0  0  0  0  0  0  0  0  0  0  0
    5.1216    2.0361   -0.9603 H   0  0  0  0  0  0  0  0  0  0  0  0
    6.3742   -0.0255   -0.3758 H   0  0  0  0  0  0  0  0  0  0  0  0
    5.1459   -2.0330    0.4137 H   0  0  0  0  0  0  0  0  0  0  0  0
    2.6880   -1.9849    0.6114 H   0  0  0  0  0  0  0  0  0  0  0  0
  1  2  1  0  0  0  0
  1  9  1  0  0  0  0
  1 15  1  0  0  0  0
  2  3  1  0  0  0  0
  2 16  1  0  0  0  0
  3  4  2  0  0  0  0
  3  8  1  0  0  0  0
  4  5  1  0  0  0  0
  4 17  1  0  0  0  0
  5  6  2  0  0  0  0
  5 18  1  0  0  0  0
  6  7  1  0  0  0  0
  6 19  1  0  0  0  0
  7  8  2  0  0  0  0
  7 20  1  0  0  0  0
  8 21  1  0  0  0  0
  9 10  2  0  0  0  0
  9 14  1  0  0  0  0
 10 11  1  0  0  0  0
 10 22  1  0  0  0  0
 11 12  2  0  0  0  0
 11 23  1  0  0  0  0
 12 13  1  0  0  0  0
 12 24  1  0  0  0  0
 13 14  2  0  0  0  0
 13 25  1  0  0  0  0
 14 26  1  0  0  0  0
M  END
$$$$

 OpenBabel12201709243D

 14 14  0  0  0  0  0  0  0  0999 V2000
    1.0658    0.0287    0.2456 O   0  0  0  0  0  0  0  0  0  0  0  0
    2.4192    0.0935    0.0959 C   0  0  0  0  0  0  0  0  0  0  0  0
    3.0815    1.3162    0.0100 C   0  0  0  0  0  0  0  0  0  0  0  0
    4.4690    1.3375   -0.1506 C   0  0  0  0  0  0  0  0  0  0  0  0
    5.1694    0.1353   -0.2230 C   0  0  0  0  0  0  0  0  0  0  0  0
    6.5227    0.1113   -0.3869 O   0  0  0  0  0  0  0  0  0  0  0  0
    4.5066   -1.0841   -0.1315 C   0  0  0  0  0  0  0  0  0  0  0  0
    3.1217   -1.1052    0.0284 C   0  0  0  0  0  0  0  0  0  0  0  0
    0.7095    0.9318    0.2495 H   0  0  0  0  0  0  0  0  0  0  0  0
    2.5382    2.2541    0.0662 H   0  0  0  0  0  0  0  0  0  0  0  0
    4.9823    2.2913   -0.2162 H   0  0  0  0  0  0  0  0  0  0  0  0
    6.8426    1.0243   -0.4677 H   0  0  0  0  0  0  0  0  0  0  0  0
    5.0652   -2.0141   -0.1875 H   0  0  0  0  0  0  0  0  0  0  0  0
    2.5935   -2.0518    0.0987 H   0  0  0  0  0  0  0  0  0  0  0  0
  1  2  1  0  0  0  0
  1  9  1  0  0  0  0
  2  3  2  0  0  0  0
  2  8  1  0  0  0  0
  3  4  1  0  0  0  0
  3 10  1  0  0  0  0
  4  5  2  0  0  0  0
  4 11  1  0  0  0  0
  5  6  1  0  0  0  0
  5  7  1  0  0  0  0
  6 12  1  0  0  0  0
  7  8  2  0  0  0  0
  7 13  1  0  0  0  0
  8 14  1  0  0  0  0
M  END
$$$$

 OpenBabel12201709243D

 12 12  0  0  0  0  0  0  0  0999 V2000
    1.0893    0.0139   -0.2216 O   0  0  0  0  0  0  0  0  0  0  0  0
    2.4424    0.0982   -0.0714 C   0  0  0  0  0  0  0  0  0  0  0  0
    3.0863    1.3188   -0.0007 C   0  0  0  0  0  0  0  0  0  0  0  0
    4.4695    1.3209    0.1542 C   0  0  0  0  0  0  0  0  0  0  0  0
    5.1169    0.1025    0.2278 C   0  0  0  0  0  0  0  0  0  0  0  0
    6.4702    0.0224    0.3779 O   0  0  0  0  0  0  0  0  0  0  0  0
    4.4617   -1.0692    0.1560 N   0  0  0  0  0  0  0  0  0  0  0  0
    3.1010   -1.0715    0.0034 N   0  0  0  0  0  0  0  0  0  0  0  0
    0.7282    0.9112   -0.2470 H   0  0  0  0  0  0  0  0  0  0  0  0
    2.5430    2.2533   -0.0633 H   0  0  0  0  0  0  0  0  0  0  0  0
    5.0100    2.2574    0.2142 H   0  0  0  0  0  0  0  0  0  0  0  0
    6.8290    0.9209    0.3991 H   0  0  0  0  0  0  0  0  0  0  0  0
  1  2  1  0  0  0  0
  1  9  1  0  0  0  0
  2  3  2  0  0  0  0
  2  8  1  0  0  0  0
  3  4  1  0  0  0  0
  3 10  1  0  0  0  0
  4  5  2  0  0  0  0
  4 11  1  0  0  0  0
  5  6  1  0  0  0  0
  5  7  1  0  0  0  0
  6 12  1  0  0  0  0
  7  8  2  0  0  0  0
M  END
$$$$

 OpenBabel12201709243D

 14 14  0  0  0  0  0  0  0  0999 V2000
    0.7042    1.1753   -0.2503 C   0  0  0  0  0  0  0  0  0  0  0  0
   -0.7393    1.1754    0.2515 C   0  0  0  0  0  0  0  0  0  0  0  0
   -1.4296    0.0001   -0.1988 O   0  0  0  0  0  0  0  0  0  0  0  0
   -0.7397   -1.1757    0.2506 C   0  0  0  0  0  0  0  0  0  0  0  0
    0.7038   -1.1757   -0.2512 C   0  0  0  0  0  0  0  0  0  0  0  0
    1.3941   -0.0005    0.1991 O   0  0  0  0  0  0  0  0  0  0  0  0
    1.2408    2.0493    0.1306 H   0  0  0  0  0  0  0  0  0  0  0  0
    0.7378    1.2007   -1.3456 H   0  0  0  0  0  0  0  0  0  0  0  0
   -1.2757    2.0497   -0.1287 H   0  0  0  0  0  0  0  0  0  0  0  0
   -0.7729    1.1999    1.3469 H   0  0  0  0  0  0  0  0  0  0  0  0
   -1.2763   -2.0496   -0.1301 H   0  0  0  0  0  0  0  0  0  0  0  0
   -0.7732   -1.2010    1.3460 H   0  0  0  0  0  0  0  0  0  0  0  0
    0.7373   -1.2002   -1.3465 H   0  0  0  0  0  0  0  0  0  0  0  0
    1.2402   -2.0501    0.1289 H   0  0  0  0  0  0  0  0  0  0  0  0
  1  2  1  0  0  0  0
  1  6  1  0  0  0  0
  1  7  1  0  0  0  0
  1  8  1  0  0  0  0
  2  3  1  0  0  0  0
  2  9  1  0  0  0  0
  2 10  1  0  0  0  0
  3  4  1  0  0  0  0
  4  5  1  0  0  0  0
  4 11  1  0  0  0  0
  4 12  1  0  0  0  0
  5  6  1  0  0  0  0
  5 13  1  0  0  0  0
  5 14  1  0  0  0  0
M  END
$$$$

 OpenBabel12201709243D

  5  4  0  0  0  0  0  0  0  0999 V2000
    0.9536   -0.0154    0.0767 Cl  0  0  0  0  0  0  0  0  0  0  0  0
    2.7181   -0.0293    0.1073 C   0  0  0  0  0  0  0  0  0  0  0  0
    3.3619    1.0865    1.5560 Br  0  0  0  0  0  0  0  0  0  0  0  0
    3.3619   -1.8543    0.2218 Br  0  0  0  0  0  0  0  0  0  0  0  0
    3.0987    0.3938   -0.8254 H   0  0  0  0  0  0  0  0  0  0  0  0
  1  2  1  0  0  0  0
  2  3  1  0  0  0  0
  2  4  1  0  0  0  0
  2  5  1  0  0  0  0
M  END
$$$$

 OpenBabel12201709243D

 22 21  0  0  0  0  0  0  0  0999 V2000
    2.7934    0.6954   -1.2569 O   0  0  0  0  0  0  0  0  0  0  0  0
    2.3774    0.0619   -0.0660 C   0  0  0  0  0  0  0  0  0  0  0  0
    2.9874    0.9561    1.4096 P   0  0  0  0  0  0  0  0  0  0  0  0
    4.9925    1.0261    0.8287 Cl  0  0  0  0  0  0  0  0  0  0  0  0
    1.9888    2.3485    0.6388 C   0  0  0  0  0  0  0  0  0  0  0  0
    2.8226    3.4497    0.3979 O   0  0  0  0  0  0  0  0  0  0  0  0
    2.6894   -0.7129    2.1971 C   0  0  0  0  0  0  0  0  0  0  0  0
    1.3126   -0.9760    2.3152 O   0  0  0  0  0  0  0  0  0  0  0  0
    3.5974    1.8503    2.8851 C   0  0  0  0  0  0  0  0  0  0  0  0
    2.5669    1.9776    3.8262 O   0  0  0  0  0  0  0  0  0  0  0  0
    2.5403    0.1004   -2.0112 H   0  0  0  0  0  0  0  0  0  0  0  0
    2.8080   -0.9595   -0.1758 H   0  0  0  0  0  0  0  0  0  0  0  0
    1.2680   -0.0542   -0.0521 H   0  0  0  0  0  0  0  0  0  0  0  0
    1.1900    2.6124    1.3680 H   0  0  0  0  0  0  0  0  0  0  0  0
    1.3730    2.2107   -0.2809 H   0  0  0  0  0  0  0  0  0  0  0  0
    2.6424    4.1278    1.1001 H   0  0  0  0  0  0  0  0  0  0  0  0
    3.1651   -0.7186    3.2042 H   0  0  0  0  0  0  0  0  0  0  0  0
    3.2052   -1.5792    1.7320 H   0  0  0  0  0  0  0  0  0  0  0  0
    1.0532   -0.8231    3.2603 H   0  0  0  0  0  0  0  0  0  0  0  0
    4.0175    2.8506    2.6354 H   0  0  0  0  0  0  0  0  0  0  0  0
    4.4138    1.2818    3.3817 H   0  0  0  0  0  0  0  0  0  0  0  0
    1.9973    2.7345    3.5346 H   0  0  0  0  0  0  0  0  0  0  0  0
  1  2  1  0  0  0  0
  1 11  1  0  0  0  0
  2  3  1  0  0  0  0
  2 12  1  0  0  0  0
  2 13  1  0  0  0  0
  3  4  1  0  0  0  0
  3  5  1  0  0  0  0
  3  7  1  0  0  0  0
  3  9  1  0  0  0  0
  5  6  1  0  0  0  0
  5 14  1  0  0  0  0
  5 15  1  0  0  0  0
  6 16  1  0  0  0  0
  7  8  1  0  0  0  0
  7 17  1  0  0  0  0
  7 18  1  0  0  0  0
  8 19  1  0  0  0  0
  9 10  1  0  0  0  0
  9 20  1  0  0  0  0
  9 21  1  0  0  0  0
 10 22  1  0  0  0  0
M  END
$$$$

 OpenBabel12201709243D

 41 43  0  0  1  0  0  0  0  0999 V2000
    1.9073   -0.5483   -0.1198 C   0  0  0  0  0  0  0  0  0  0  0  0
    2.7166   -1.7098    0.0581 O   0  0  0  0  0  0  0  0  0  0  0  0
    3.9171   -1.5552    0.7345 C   0  0  0  0  0  0  0  0  0  0  0  0
    4.4571   -0.3630    1.0470 C   0  0  0  0  0  0  0  0  0  0  0  0
    5.7183   -0.3869    1.8076 C   0  0  0  0  0  0  0  0  0  0  0  0
    5.9180    0.3993    2.7233 O   0  0  0  0  0  0  0  0  0  0  0  0
    6.6866   -1.4535    1.3862 C   0  0  0  0  0  0  0  0  0  0  0  0
    6.0415   -2.7945    1.7209 C   0  0  3  0  0  0  0  0  0  0  0  0
    6.9903   -3.9380    1.3442 C   0  0  0  0  0  0  0  0  0  0  0  0
    4.5248   -2.8627    1.2647 C   0  0  3  0  0  0  0  0  0  0  0  0
    3.8328   -3.0564    2.5507 O   0  0  0  0  0  0  0  0  0  0  0  0
    3.6819   -4.4109    2.6841 C   0  0  0  0  0  0  0  0  0  0  0  0
    3.6444   -5.1006    1.4881 C   0  0  0  0  0  0  0  0  0  0  0  0
    4.0942   -4.1304    0.4943 C   0  0  0  0  0  0  0  0  0  0  0  0
    4.2168   -4.3505   -0.7023 O   0  0  0  0  0  0  0  0  0  0  0  0
    3.3903   -6.4664    1.4413 C   0  0  0  0  0  0  0  0  0  0  0  0
    3.2062   -7.0537    0.2270 O   0  0  0  0  0  0  0  0  0  0  0  0
    2.7479   -8.4065    0.2241 C   0  0  0  0  0  0  0  0  0  0  0  0
    3.3641   -7.1408    2.6689 C   0  0  0  0  0  0  0  0  0  0  0  0
    3.5671   -6.4502    3.8894 C   0  0  0  0  0  0  0  0  0  0  0  0
    3.6752   -7.1128    5.0839 O   0  0  0  0  0  0  0  0  0  0  0  0
    4.5050   -8.2743    5.0262 C   0  0  0  0  0  0  0  0  0  0  0  0
    3.6374   -5.0562    3.9081 C   0  0  0  0  0  0  0  0  0  0  0  0
    3.8622   -4.1645    5.3624 Cl  0  0  0  0  0  0  0  0  0  0  0  0
    2.3545    0.1379   -0.8473 H   0  0  0  0  0  0  0  0  0  0  0  0
    1.7356   -0.0424    0.8364 H   0  0  0  0  0  0  0  0  0  0  0  0
    0.9349   -0.8671   -0.5054 H   0  0  0  0  0  0  0  0  0  0  0  0
    4.0469    0.6070    0.8160 H   0  0  0  0  0  0  0  0  0  0  0  0
    7.6331   -1.3169    1.9198 H   0  0  0  0  0  0  0  0  0  0  0  0
    6.8889   -1.3466    0.3139 H   0  0  0  0  0  0  0  0  0  0  0  0
    6.0266   -2.8205    2.8227 H   0  0  0  0  0  0  0  0  0  0  0  0
    7.6466   -3.6753    0.5086 H   0  0  0  0  0  0  0  0  0  0  0  0
    6.4904   -4.8794    1.1145 H   0  0  0  0  0  0  0  0  0  0  0  0
    7.6488   -4.1416    2.2013 H   0  0  0  0  0  0  0  0  0  0  0  0
    2.4349   -8.6625   -0.7916 H   0  0  0  0  0  0  0  0  0  0  0  0
    1.8788   -8.5507    0.8775 H   0  0  0  0  0  0  0  0  0  0  0  0
    3.5631   -9.0786    0.5081 H   0  0  0  0  0  0  0  0  0  0  0  0
    3.2179   -8.2082    2.7087 H   0  0  0  0  0  0  0  0  0  0  0  0
    4.9232   -8.4403    6.0235 H   0  0  0  0  0  0  0  0  0  0  0  0
    5.3453   -8.1604    4.3302 H   0  0  0  0  0  0  0  0  0  0  0  0
    3.9010   -9.1455    4.7588 H   0  0  0  0  0  0  0  0  0  0  0  0
  1  2  1  0  0  0  0
  1 25  1  0  0  0  0
  1 26  1  0  0  0  0
  1 27  1  0  0  0  0
  2  3  1  0  0  0  0
  3  4  2  0  0  0  0
  3 10  1  0  0  0  0
  4  5  1  0  0  0  0
  4 28  1  0  0  0  0
  5  6  2  0  0  0  0
  5  7  1  0  0  0  0
  7  8  1  0  0  0  0
  7 29  1  0  0  0  0
  7 30  1  0  0  0  0
  8  9  1  0  0  0  0
  8 10  1  0  0  0  0
  8 31  1  0  0  0  0
  9 32  1  0  0  0  0
  9 33  1  0  0  0  0
  9 34  1  0  0  0  0
 10 11  1  0  0  0  0
 10 14  1  0  0  0  0
 11 12  1  0  0  0  0
 12 13  2  0  0  0  0
 12 23  1  0  0  0  0
 13 14  1  0  0  0  0
 13 16  1  0  0  0  0
 14 15  2  0  0  0  0
 16 17  1  0  0  0  0
 16 19  2  0  0  0  0
 17 18  1  0  0  0  0
 18 35  1  0  0  0  0
 18 36  1  0  0  0  0
 18 37  1  0  0  0  0
 19 20  1  0  0  0  0
 19 38  1  0  0  0  0
 20 21  1  0  0  0  0
 20 23  2  0  0  0  0
 21 22  1  0  0  0  0
 22 39  1  0  0  0  0
 22 40  1  0  0  0  0
 22 41  1  0  0  0  0
 23 24  1  0  0  0  0
M  END
$$$$

 OpenBabel12201709243D

 35 34  0  0  1  0  0  0  0  0999 V2000
    0.8703    0.2115   -1.6352 Br  0  0  0  0  0  0  0  0  0  0  0  0
    2.8117    0.4301   -1.6443 C   0  0  0  0  0  0  0  0  0  0  0  0
    3.3282    0.8440   -3.0150 C   0  0  3  0  0  0  0  0  0  0  0  0
    2.7305    2.6699   -3.4562 Br  0  0  0  0  0  0  0  0  0  0  0  0
    4.8527    0.8611   -3.0687 C   0  0  0  0  0  0  0  0  0  0  0  0
    5.3885   -0.4099   -2.7338 O   0  0  0  0  0  0  0  0  0  0  0  0
    7.1185   -0.4099   -2.7338 P   0  0  0  0  0  0  0  0  0  0  0  0
    7.1183   -1.5328   -1.6947 O   0  0  0  0  0  0  0  0  0  0  0  0
    7.1165   -1.1108   -4.2430 O   0  0  0  0  0  0  0  0  0  0  0  0
    8.1040   -2.1097   -4.5239 C   0  0  0  0  0  0  0  0  0  0  0  0
    8.0733   -2.6568   -5.9483 C   0  0  3  0  0  0  0  0  0  0  0  0
    8.1717   -1.1332   -7.2039 Br  0  0  0  0  0  0  0  0  0  0  0  0
    9.2933   -3.5512   -6.1511 C   0  0  0  0  0  0  0  0  0  0  0  0
    9.2023   -4.5676   -7.8090 Br  0  0  0  0  0  0  0  0  0  0  0  0
    8.8485   -0.4099   -2.7338 O   0  0  0  0  0  0  0  0  0  0  0  0
    9.3628    0.9057   -2.9465 C   0  0  0  0  0  0  0  0  0  0  0  0
   10.8878    0.9447   -2.8476 C   0  0  3  0  0  0  0  0  0  0  0  0
   11.6437   -0.1061   -4.3428 Br  0  0  0  0  0  0  0  0  0  0  0  0
   11.4643    2.3481   -2.9750 C   0  0  0  0  0  0  0  0  0  0  0  0
   11.0250    3.4438   -1.4263 Br  0  0  0  0  0  0  0  0  0  0  0  0
    3.1988   -0.5502   -1.3470 H   0  0  0  0  0  0  0  0  0  0  0  0
    3.0480    1.1577   -0.8615 H   0  0  0  0  0  0  0  0  0  0  0  0
    2.9259    0.1931   -3.7980 H   0  0  0  0  0  0  0  0  0  0  0  0
    5.2591    1.5980   -2.3654 H   0  0  0  0  0  0  0  0  0  0  0  0
    5.1995    1.1330   -4.0725 H   0  0  0  0  0  0  0  0  0  0  0  0
    7.9919   -2.9276   -3.8036 H   0  0  0  0  0  0  0  0  0  0  0  0
    9.1000   -1.6901   -4.3967 H   0  0  0  0  0  0  0  0  0  0  0  0
    7.1222   -3.1557   -6.1653 H   0  0  0  0  0  0  0  0  0  0  0  0
    9.3714   -4.3051   -5.3611 H   0  0  0  0  0  0  0  0  0  0  0  0
   10.2309   -2.9895   -6.1835 H   0  0  0  0  0  0  0  0  0  0  0  0
    8.9159    1.5484   -2.1775 H   0  0  0  0  0  0  0  0  0  0  0  0
    9.0145    1.2657   -3.9222 H   0  0  0  0  0  0  0  0  0  0  0  0
   11.2382    0.4324   -1.9455 H   0  0  0  0  0  0  0  0  0  0  0  0
   11.0811    2.8779   -3.8533 H   0  0  0  0  0  0  0  0  0  0  0  0
   12.5579    2.3407   -3.0227 H   0  0  0  0  0  0  0  0  0  0  0  0
  1  2  1  0  0  0  0
  2  3  1  0  0  0  0
  2 21  1  0  0  0  0
  2 22  1  0  0  0  0
  3  4  1  0  0  0  0
  3  5  1  0  0  0  0
  3 23  1  0  0  0  0
  5  6  1  0  0  0  0
  5 24  1  0  0  0  0
  5 25  1  0  0  0  0
  6  7  1  0  0  0  0
  7  8  2  0  0  0  0
  7  9  1  0  0  0  0
  7 15  1  0  0  0  0
  9 10  1  0  0  0  0
 10 11  1  0  0  0  0
 10 26  1  0  0  0  0
 10 27  1  0  0  0  0
 11 12  1  0  0  0  0
 11 13  1  0  0  0  0
 11 28  1  0  0  0  0
 13 14  1  0  0  0  0
 13 29  1  0  0  0  0
 13 30  1  0  0  0  0
 15 16  1  0  0  0  0
 16 17  1  0  0  0  0
 16 31  1  0  0  0  0
 16 32  1  0  0  0  0
 17 18  1  0  0  0  0
 17 19  1  0  0  0  0
 17 33  1  0  0  0  0
 19 20  1  0  0  0  0
 19 34  1  0  0  0  0
 19 35  1  0  0  0  0
M  END
$$$$

 OpenBabel12201709243D

  6  5  0  0  0  0  0  0  0  0999 V2000
    1.1263    0.0491    0.0894 Cl  0  0  0  0  0  0  0  0  0  0  0  0
    2.8626    0.0602    0.0112 C   0  0  0  0  0  0  0  0  0  0  0  0
    3.5347    0.2235   -1.1414 C   0  0  0  0  0  0  0  0  0  0  0  0
    5.2710    0.2346   -1.2196 Cl  0  0  0  0  0  0  0  0  0  0  0  0
    2.7349    0.4401   -2.6693 Cl  0  0  0  0  0  0  0  0  0  0  0  0
    3.6623   -0.1564    1.5391 Cl  0  0  0  0  0  0  0  0  0  0  0  0
  1  2  1  0  0  0  0
  2  3  2  0  0  0  0
  2  6  1  0  0  0  0
  3  4  1  0  0  0  0
  3  5  1  0  0  0  0
M  END
$$$$

 OpenBabel12201709243D

 31 32  0  0  0  0  0  0  0  0999 V2000
    5.7526    0.3778    4.4436 C   0  0  0  0  0  0  0  0  0  0  0  0
    6.0345   -0.3948    3.2095 C   0  0  0  0  0  0  0  0  0  0  0  0
    7.2898   -0.7010    2.8563 N   0  0  0  0  0  0  0  0  0  0  0  0
    7.1859   -1.3556    1.6412 O   0  0  0  0  0  0  0  0  0  0  0  0
    5.8763   -1.4828    1.3003 C   0  0  0  0  0  0  0  0  0  0  0  0
    5.4103   -1.9969    0.0598 N   0  0  0  0  0  0  0  0  0  0  0  0
    5.1541   -3.6835    0.0723 S   0  0  0  0  0  0  0  0  0  0  0  0
    4.5298   -4.0642    1.3241 O   0  0  0  0  0  0  0  0  0  0  0  0
    4.5406   -4.0044   -1.2007 O   0  0  0  0  0  0  0  0  0  0  0  0
    6.7897   -4.4017    0.0142 C   0  0  0  0  0  0  0  0  0  0  0  0
    7.1981   -5.3072    0.9987 C   0  0  0  0  0  0  0  0  0  0  0  0
    8.4392   -5.9505    0.8862 C   0  0  0  0  0  0  0  0  0  0  0  0
    9.2979   -5.6716   -0.1812 C   0  0  0  0  0  0  0  0  0  0  0  0
   10.4788   -6.4057   -0.3534 N   0  0  0  0  0  0  0  0  0  0  0  0
    8.8425   -4.8269   -1.1991 C   0  0  0  0  0  0  0  0  0  0  0  0
    7.6037   -4.1775   -1.1047 C   0  0  0  0  0  0  0  0  0  0  0  0
    5.0950   -0.8602    2.2486 C   0  0  0  0  0  0  0  0  0  0  0  0
    3.6315   -0.6425    2.2599 C   0  0  0  0  0  0  0  0  0  0  0  0
    6.6596    0.5928    5.0178 H   0  0  0  0  0  0  0  0  0  0  0  0
    5.0656   -0.1783    5.0909 H   0  0  0  0  0  0  0  0  0  0  0  0
    5.2783    1.3352    4.1941 H   0  0  0  0  0  0  0  0  0  0  0  0
    6.0428   -1.7764   -0.7082 H   0  0  0  0  0  0  0  0  0  0  0  0
    6.5448   -5.5611    1.8336 H   0  0  0  0  0  0  0  0  0  0  0  0
    8.7187   -6.6985    1.6260 H   0  0  0  0  0  0  0  0  0  0  0  0
   10.8827   -6.7404    0.5167 H   0  0  0  0  0  0  0  0  0  0  0  0
   11.1682   -5.9448   -0.9395 H   0  0  0  0  0  0  0  0  0  0  0  0
    9.4466   -4.6823   -2.0922 H   0  0  0  0  0  0  0  0  0  0  0  0
    7.2674   -3.5547   -1.9236 H   0  0  0  0  0  0  0  0  0  0  0  0
    3.1467   -1.0713    1.3783 H   0  0  0  0  0  0  0  0  0  0  0  0
    3.4110    0.4296    2.2724 H   0  0  0  0  0  0  0  0  0  0  0  0
    3.1837   -1.0928    3.1510 H   0  0  0  0  0  0  0  0  0  0  0  0
  1  2  1  0  0  0  0
  1 19  1  0  0  0  0
  1 20  1  0  0  0  0
  1 21  1  0  0  0  0
  2  3  2  0  0  0  0
  2 17  1  0  0  0  0
  3  4  1  0  0  0  0
  4  5  1  0  0  0  0
  5  6  1  0  0  0  0
  5 17  2  0  0  0  0
  6  7  1  0  0  0  0
  6 22  1  0  0  0  0
  7  8  2  0  0  0  0
  7  9  2  0  0  0  0
  7 10  1  0  0  0  0
 10 11  2  0  0  0  0
 10 16  1  0  0  0  0
 11 12  1  0  0  0  0
 11 23  1  0  0  0  0
 12 13  2  0  0  0  0
 12 24  1  0  0  0  0
 13 14  1  0  0  0  0
 13 15  1  0  0  0  0
 14 25  1  0  0  0  0
 14 26  1  0  0  0  0
 15 16  2  0  0  0  0
 15 27  1  0  0  0  0
 16 28  1  0  0  0  0
 17 18  1  0  0  0  0
 18 29  1  0  0  0  0
 18 30  1  0  0  0  0
 18 31  1  0  0  0  0
M  END
$$$$

 OpenBabel12201709243D

 40 40  0  0  0  0  0  0  0  0999 V2000
    0.9720   -0.0119   -0.0870 C   0  0  0  0  0  0  0  0  0  0  0  0
    2.4730    0.0115   -0.1002 C   0  0  0  0  0  0  0  0  0  0  0  0
    3.1697    1.2230   -0.1079 C   0  0  0  0  0  0  0  0  0  0  0  0
    4.5788    1.2965   -0.1059 C   0  0  0  0  0  0  0  0  0  0  0  0
    5.2654    0.0513   -0.1054 C   0  0  0  0  0  0  0  0  0  0  0  0
    6.6333   -0.0132   -0.0957 O   0  0  0  0  0  0  0  0  0  0  0  0
    4.5956   -1.2072   -0.0984 C   0  0  0  0  0  0  0  0  0  0  0  0
    3.1899   -1.1840   -0.0929 C   0  0  0  0  0  0  0  0  0  0  0  0
    5.3525   -2.5630   -0.0798 C   0  0  0  0  0  0  0  0  0  0  0  0
    6.1911   -2.6977    1.2109 C   0  0  0  0  0  0  0  0  0  0  0  0
    4.4130   -3.8001   -0.1087 C   0  0  0  0  0  0  0  0  0  0  0  0
    6.2662   -2.7087   -1.3168 C   0  0  0  0  0  0  0  0  0  0  0  0
    5.2574    2.6929   -0.0639 C   0  0  0  0  0  0  0  0  0  0  0  0
    4.2434    3.8753   -0.0523 C   0  0  0  0  0  0  0  0  0  0  0  0
    6.0846    2.8527    1.2322 C   0  0  0  0  0  0  0  0  0  0  0  0
    6.1440    2.9448   -1.3040 C   0  0  0  0  0  0  0  0  0  0  0  0
    0.5519    0.9995   -0.0816 H   0  0  0  0  0  0  0  0  0  0  0  0
    0.6112   -0.5268    0.8093 H   0  0  0  0  0  0  0  0  0  0  0  0
    0.5939   -0.5262   -0.9763 H   0  0  0  0  0  0  0  0  0  0  0  0
    2.5619    2.1231   -0.1094 H   0  0  0  0  0  0  0  0  0  0  0  0
    7.0191    0.8666   -0.1467 H   0  0  0  0  0  0  0  0  0  0  0  0
    2.6114   -2.1032   -0.0778 H   0  0  0  0  0  0  0  0  0  0  0  0
    5.5537   -2.6391    2.1011 H   0  0  0  0  0  0  0  0  0  0  0  0
    6.9580   -1.9248    1.3078 H   0  0  0  0  0  0  0  0  0  0  0  0
    6.7131   -3.6618    1.2404 H   0  0  0  0  0  0  0  0  0  0  0  0
    3.7603   -3.8345    0.7717 H   0  0  0  0  0  0  0  0  0  0  0  0
    4.9862   -4.7352   -0.1147 H   0  0  0  0  0  0  0  0  0  0  0  0
    3.7829   -3.8074   -1.0063 H   0  0  0  0  0  0  0  0  0  0  0  0
    7.0647   -1.9638   -1.3556 H   0  0  0  0  0  0  0  0  0  0  0  0
    5.6901   -2.6223   -2.2451 H   0  0  0  0  0  0  0  0  0  0  0  0
    6.7611   -3.6884   -1.3255 H   0  0  0  0  0  0  0  0  0  0  0  0
    3.5953    3.8458    0.8320 H   0  0  0  0  0  0  0  0  0  0  0  0
    3.6091    3.8716   -0.9475 H   0  0  0  0  0  0  0  0  0  0  0  0
    4.7576    4.8435   -0.0345 H   0  0  0  0  0  0  0  0  0  0  0  0
    5.4465    2.7481    2.1178 H   0  0  0  0  0  0  0  0  0  0  0  0
    6.5534    3.8432    1.2768 H   0  0  0  0  0  0  0  0  0  0  0  0
    6.8908    2.1229    1.3328 H   0  0  0  0  0  0  0  0  0  0  0  0
    5.5602    2.8554   -2.2292 H   0  0  0  0  0  0  0  0  0  0  0  0
    6.9949    2.2694   -1.3951 H   0  0  0  0  0  0  0  0  0  0  0  0
    6.5640    3.9602   -1.2812 H   0  0  0  0  0  0  0  0  0  0  0  0
  1  2  1  0  0  0  0
  1 17  1  0  0  0  0
  1 18  1  0  0  0  0
  1 19  1  0  0  0  0
  2  3  2  0  0  0  0
  2  8  1  0  0  0  0
  3  4  1  0  0  0  0
  3 20  1  0  0  0  0
  4  5  2  0  0  0  0
  4 13  1  0  0  0  0
  5  6  1  0  0  0  0
  5  7  1  0  0  0  0
  6 21  1  0  0  0  0
  7  8  2  0  0  0  0
  7  9  1  0  0  0  0
  8 22  1  0  0  0  0
  9 10  1  0  0  0  0
  9 11  1  0  0  0  0
  9 12  1  0  0  0  0
 10 23  1  0  0  0  0
 10 24  1  0  0  0  0
 10 25  1  0  0  0  0
 11 26  1  0  0  0  0
 11 27  1  0  0  0  0
 11 28  1  0  0  0  0
 12 29  1  0  0  0  0
 12 30  1  0  0  0  0
 12 31  1  0  0  0  0
 13 14  1  0  0  0  0
 13 15  1  0  0  0  0
 13 16  1  0  0  0  0
 14 32  1  0  0  0  0
 14 33  1  0  0  0  0
 14 34  1  0  0  0  0
 15 35  1  0  0  0  0
 15 36  1  0  0  0  0
 15 37  1  0  0  0  0
 16 38  1  0  0  0  0
 16 39  1  0  0  0  0
 16 40  1  0  0  0  0
M  END
$$$$

 OpenBabel12201709243D

 17 18  0  0  0  0  0  0  0  0999 V2000
    1.0149    0.2139    0.0065 O   0  0  0  0  0  0  0  0  0  0  0  0
    2.2131    0.0469   -0.0887 C   0  0  0  0  0  0  0  0  0  0  0  0
    3.1592    1.0820   -0.1752 N   0  0  0  0  0  0  0  0  0  0  0  0
    4.7434    0.5682   -0.0510 S   0  0  0  0  0  0  0  0  0  0  0  0
    5.4265    0.8566   -1.2868 O   0  0  0  0  0  0  0  0  0  0  0  0
    5.2420    0.9301    1.2533 O   0  0  0  0  0  0  0  0  0  0  0  0
    4.2952   -1.1133   -0.0346 C   0  0  0  0  0  0  0  0  0  0  0  0
    5.1537   -2.1968   -0.0285 C   0  0  0  0  0  0  0  0  0  0  0  0
    4.5748   -3.4679   -0.0402 C   0  0  0  0  0  0  0  0  0  0  0  0
    3.1750   -3.6221   -0.0583 C   0  0  0  0  0  0  0  0  0  0  0  0
    2.3299   -2.5063   -0.0734 C   0  0  0  0  0  0  0  0  0  0  0  0
    2.9139   -1.2500   -0.0728 C   0  0  0  0  0  0  0  0  0  0  0  0
    2.9054    2.0237    0.1018 H   0  0  0  0  0  0  0  0  0  0  0  0
    6.2317   -2.0672   -0.0192 H   0  0  0  0  0  0  0  0  0  0  0  0
    5.2110   -4.3517   -0.0365 H   0  0  0  0  0  0  0  0  0  0  0  0
    2.7466   -4.6232   -0.0638 H   0  0  0  0  0  0  0  0  0  0  0  0
    1.2496   -2.6225   -0.0881 H   0  0  0  0  0  0  0  0  0  0  0  0
  1  2  2  0  0  0  0
  2  3  1  0  0  0  0
  2 12  1  0  0  0  0
  3  4  1  0  0  0  0
  3 13  1  0  0  0  0
  4  5  2  0  0  0  0
  4  6  2  0  0  0  0
  4  7  1  0  0  0  0
  7  8  2  0  0  0  0
  7 12  1  0  0  0  0
  8  9  1  0  0  0  0
  8 14  1  0  0  0  0
  9 10  2  0  0  0  0
  9 15  1  0  0  0  0
 10 11  1  0  0  0  0
 10 16  1  0  0  0  0
 11 12  2  0  0  0  0
 11 17  1  0  0  0  0
M  END
$$$$

 OpenBabel12201709243D

 38 43  0  0  0  0  0  0  0  0999 V2000
    1.3200    0.3053    0.1767 O   0  0  0  0  0  0  0  0  0  0  0  0
    2.5370    0.1994    0.2738 C   0  0  0  0  0  0  0  0  0  0  0  0
    3.2061   -1.1273    0.1292 C   0  0  0  0  0  0  0  0  0  0  0  0
    2.3968   -2.2648   -0.0019 C   0  0  0  0  0  0  0  0  0  0  0  0
    2.9863   -3.5280   -0.0970 C   0  0  0  0  0  0  0  0  0  0  0  0
    4.3683   -3.6387   -0.0414 C   0  0  0  0  0  0  0  0  0  0  0  0
    5.1658   -2.4960    0.0752 C   0  0  0  0  0  0  0  0  0  0  0  0
    4.6114   -1.2095    0.1439 C   0  0  0  0  0  0  0  0  0  0  0  0
    5.4189    0.0270    0.1993 C   0  0  0  0  0  0  0  0  0  0  0  0
    6.8081    0.0231   -0.0527 C   0  0  0  0  0  0  0  0  0  0  0  0
    7.5238    1.2120   -0.2015 C   0  0  0  0  0  0  0  0  0  0  0  0
    6.8477    2.4140   -0.0231 C   0  0  0  0  0  0  0  0  0  0  0  0
    7.3958    3.6554   -0.6265 C   0  0  0  0  0  0  0  0  0  0  0  0
    8.4865    3.6988   -1.1782 O   0  0  0  0  0  0  0  0  0  0  0  0
    6.5237    4.8422   -0.5738 C   0  0  0  0  0  0  0  0  0  0  0  0
    6.0845    5.5325   -1.6954 C   0  0  0  0  0  0  0  0  0  0  0  0
    5.2186    6.6120   -1.5074 C   0  0  0  0  0  0  0  0  0  0  0  0
    4.9601    7.0570   -0.2085 C   0  0  0  0  0  0  0  0  0  0  0  0
    5.2872    6.2334    0.8643 C   0  0  0  0  0  0  0  0  0  0  0  0
    5.7543    4.9582    0.5743 C   0  0  0  0  0  0  0  0  0  0  0  0
    4.9314    3.7303    0.7599 C   0  0  0  0  0  0  0  0  0  0  0  0
    3.5329    3.7855    0.8970 C   0  0  0  0  0  0  0  0  0  0  0  0
    2.7633    2.6331    0.7244 C   0  0  0  0  0  0  0  0  0  0  0  0
    3.3786    1.3922    0.5221 C   0  0  0  0  0  0  0  0  0  0  0  0
    4.7722    1.2836    0.4185 C   0  0  0  0  0  0  0  0  0  0  0  0
    5.5224    2.4683    0.4433 C   0  0  0  0  0  0  0  0  0  0  0  0
    1.3138   -2.1767   -0.0357 H   0  0  0  0  0  0  0  0  0  0  0  0
    2.3648   -4.4111   -0.2027 H   0  0  0  0  0  0  0  0  0  0  0  0
    4.8362   -4.6202   -0.0931 H   0  0  0  0  0  0  0  0  0  0  0  0
    6.2414   -2.6480    0.1135 H   0  0  0  0  0  0  0  0  0  0  0  0
    7.3581   -0.8929   -0.2380 H   0  0  0  0  0  0  0  0  0  0  0  0
    8.5478    1.2064   -0.5347 H   0  0  0  0  0  0  0  0  0  0  0  0
    6.3359    5.1814   -2.6912 H   0  0  0  0  0  0  0  0  0  0  0  0
    4.7774    7.1220   -2.3587 H   0  0  0  0  0  0  0  0  0  0  0  0
    4.4565    8.0035   -0.0363 H   0  0  0  0  0  0  0  0  0  0  0  0
    5.1023    6.5414    1.8892 H   0  0  0  0  0  0  0  0  0  0  0  0
    3.0240    4.7412    0.9846 H   0  0  0  0  0  0  0  0  0  0  0  0
    1.6762    2.7182    0.6979 H   0  0  0  0  0  0  0  0  0  0  0  0
  1  2  2  0  0  0  0
  2  3  1  0  0  0  0
  2 24  1  0  0  0  0
  3  4  2  0  0  0  0
  3  8  1  0  0  0  0
  4  5  1  0  0  0  0
  4 27  1  0  0  0  0
  5  6  2  0  0  0  0
  5 28  1  0  0  0  0
  6  7  1  0  0  0  0
  6 29  1  0  0  0  0
  7  8  2  0  0  0  0
  7 30  1  0  0  0  0
  8  9  1  0  0  0  0
  9 10  2  0  0  0  0
  9 25  1  0  0  0  0
 10 11  1  0  0  0  0
 10 31  1  0  0  0  0
 11 12  2  0  0  0  0
 11 32  1  0  0  0  0
 12 13  1  0  0  0  0
 12 26  1  0  0  0  0
 13 14  2  0  0  0  0
 13 15  1  0  0  0  0
 15 16  2  0  0  0  0
 15 20  1  0  0  0  0
 16 17  1  0  0  0  0
 16 33  1  0  0  0  0
 17 18  2  0  0  0  0
 17 34  1  0  0  0  0
 18 19  1  0  0  0  0
 18 35  1  0  0  0  0
 19 20  2  0  0  0  0
 19 36  1  0  0  0  0
 20 21  1  0  0  0  0
 21 22  2  0  0  0  0
 21 26  1  0  0  0  0
 22 23  1  0  0  0  0
 22 37  1  0  0  0  0
 23 24  2  0  0  0  0
 23 38  1  0  0  0  0
 24 25  1  0  0  0  0
 25 26  2  0  0  0  0
M  END
$$$$

 OpenBabel12201709243D

 30 32  0  0  0  0  0  0  0  0999 V2000
    0.8913    0.0990   -0.0331 C   0  0  0  0  0  0  0  0  0  0  0  0
    2.3935   -0.0728   -0.0300 C   0  0  0  0  0  0  0  0  0  0  0  0
    3.1641    1.0970   -0.0284 C   0  0  0  0  0  0  0  0  0  0  0  0
    4.5504    1.0278   -0.0328 C   0  0  0  0  0  0  0  0  0  0  0  0
    5.1960   -0.2130   -0.0403 C   0  0  0  0  0  0  0  0  0  0  0  0
    6.6748   -0.2050   -0.0403 C   0  0  0  0  0  0  0  0  0  0  0  0
    7.2920    0.8534   -0.0546 O   0  0  0  0  0  0  0  0  0  0  0  0
    7.4046   -1.4778   -0.0226 C   0  0  0  0  0  0  0  0  0  0  0  0
    8.8057   -1.4750   -0.0149 C   0  0  0  0  0  0  0  0  0  0  0  0
    9.5031   -2.6821   -0.0087 C   0  0  0  0  0  0  0  0  0  0  0  0
    8.8041   -3.8882   -0.0101 C   0  0  0  0  0  0  0  0  0  0  0  0
    7.4071   -3.8889   -0.0175 C   0  0  0  0  0  0  0  0  0  0  0  0
    6.7043   -2.6775   -0.0211 C   0  0  0  0  0  0  0  0  0  0  0  0
    5.2233   -2.6783   -0.0544 C   0  0  0  0  0  0  0  0  0  0  0  0
    4.6316   -3.7495   -0.1296 O   0  0  0  0  0  0  0  0  0  0  0  0
    4.4586   -1.4068   -0.0436 C   0  0  0  0  0  0  0  0  0  0  0  0
    3.0408   -1.3403   -0.0333 C   0  0  0  0  0  0  0  0  0  0  0  0
    2.2060   -2.5416    0.0097 N   0  0  0  0  0  0  0  0  0  0  0  0
    1.2598   -2.5614    0.7718 O   0  0  0  0  0  0  0  0  0  0  0  0
    2.2995   -3.5342   -0.9490 O   0  0  0  0  0  0  0  0  0  0  0  0
    0.6158    1.1585   -0.1034 H   0  0  0  0  0  0  0  0  0  0  0  0
    0.4522   -0.2723    0.8968 H   0  0  0  0  0  0  0  0  0  0  0  0
    0.4463   -0.4049   -0.8959 H   0  0  0  0  0  0  0  0  0  0  0  0
    2.6898    2.0774   -0.0229 H   0  0  0  0  0  0  0  0  0  0  0  0
    5.1262    1.9522   -0.0270 H   0  0  0  0  0  0  0  0  0  0  0  0
    9.3568   -0.5355   -0.0154 H   0  0  0  0  0  0  0  0  0  0  0  0
   10.5919   -2.6807   -0.0070 H   0  0  0  0  0  0  0  0  0  0  0  0
    9.3486   -4.8305   -0.0099 H   0  0  0  0  0  0  0  0  0  0  0  0
    6.8756   -4.8385   -0.0223 H   0  0  0  0  0  0  0  0  0  0  0  0
    3.2508   -3.7442   -0.9077 H   0  0  0  0  0  0  0  0  0  0  0  0
  1  2  1  0  0  0  0
  1 21  1  0  0  0  0
  1 22  1  0  0  0  0
  1 23  1  0  0  0  0
  2  3  2  0  0  0  0
  2 17  1  0  0  0  0
  3  4  1  0  0  0  0
  3 24  1  0  0  0  0
  4  5  2  0  0  0  0
  4 25  1  0  0  0  0
  5  6  1  0  0  0  0
  5 16  1  0  0  0  0
  6  7  2  0  0  0  0
  6  8  1  0  0  0  0
  8  9  2  0  0  0  0
  8 13  1  0  0  0  0
  9 10  1  0  0  0  0
  9 26  1  0  0  0  0
 10 11  2  0  0  0  0
 10 27  1  0  0  0  0
 11 12  1  0  0  0  0
 11 28  1  0  0  0  0
 12 13  2  0  0  0  0
 12 29  1  0  0  0  0
 13 14  1  0  0  0  0
 14 15  2  0  0  0  0
 14 16  1  0  0  0  0
 16 17  2  0  0  0  0
 17 18  1  0  0  0  0
 18 19  2  0  0  0  0
 18 20  1  0  0  0  0
 20 30  1  0  0  0  0
M  END
$$$$

 OpenBabel12201709243D

 23 22  0  0  0  0  0  0  0  0999 V2000
    2.7252    0.4724    2.9721 C   0  0  0  0  0  0  0  0  0  0  0  0
    2.4762    0.1586    1.5035 C   0  0  0  0  0  0  0  0  0  0  0  0
    3.0411    1.1991    0.5261 C   0  0  0  0  0  0  0  0  0  0  0  0
    4.5217    1.2881    0.5709 N   0  0  0  0  0  0  0  0  0  0  0  0
    5.3280    0.4027   -0.0888 N   0  0  0  0  0  0  0  0  0  0  0  0
    4.7472   -0.2543   -0.9586 O   0  0  0  0  0  0  0  0  0  0  0  0
    5.1049    2.1762    1.4978 C   0  0  0  0  0  0  0  0  0  0  0  0
    4.5968    3.3267    1.8356 N   0  0  0  0  0  0  0  0  0  0  0  0
    6.2651    1.7033    2.0934 N   0  0  0  0  0  0  0  0  0  0  0  0
    6.7279    2.3453    3.2206 N   0  0  0  0  0  0  0  0  0  0  0  0
    7.5833    1.4516    3.9634 O   0  0  0  0  0  0  0  0  0  0  0  0
    7.5146    3.5023    2.8641 O   0  0  0  0  0  0  0  0  0  0  0  0
    2.1614   -0.2218    3.6048 H   0  0  0  0  0  0  0  0  0  0  0  0
    2.4068    1.4891    3.2226 H   0  0  0  0  0  0  0  0  0  0  0  0
    3.7821    0.3622    3.2305 H   0  0  0  0  0  0  0  0  0  0  0  0
    1.3910    0.1072    1.3494 H   0  0  0  0  0  0  0  0  0  0  0  0
    2.8729   -0.8375    1.2767 H   0  0  0  0  0  0  0  0  0  0  0  0
    2.5662    2.1663    0.7182 H   0  0  0  0  0  0  0  0  0  0  0  0
    2.7188    0.9314   -0.4884 H   0  0  0  0  0  0  0  0  0  0  0  0
    3.7861    3.5464    1.2598 H   0  0  0  0  0  0  0  0  0  0  0  0
    6.9969    1.4276    1.4445 H   0  0  0  0  0  0  0  0  0  0  0  0
    6.8969    0.9191    4.4007 H   0  0  0  0  0  0  0  0  0  0  0  0
    6.8572    4.1914    3.0730 H   0  0  0  0  0  0  0  0  0  0  0  0
  1  2  1  0  0  0  0
  1 13  1  0  0  0  0
  1 14  1  0  0  0  0
  1 15  1  0  0  0  0
  2  3  1  0  0  0  0
  2 16  1  0  0  0  0
  2 17  1  0  0  0  0
  3  4  1  0  0  0  0
  3 18  1  0  0  0  0
  3 19  1  0  0  0  0
  4  5  1  0  0  0  0
  4  7  1  0  0  0  0
  5  6  2  0  0  0  0
  7  8  2  0  0  0  0
  7  9  1  0  0  0  0
  8 20  1  0  0  0  0
  9 10  1  0  0  0  0
  9 21  1  0  0  0  0
 10 11  1  0  0  0  0
 10 12  1  0  0  0  0
 11 22  1  0  0  0  0
 12 23  1  0  0  0  0
M  END
$$$$

 OpenBabel12201709243D

 26 25  0  0  0  0  0  0  0  0999 V2000
    1.0526    0.0560   -0.0996 C   0  0  0  0  0  0  0  0  0  0  0  0
    2.5706   -0.0252   -0.1350 C   0  0  0  0  0  0  0  0  0  0  0  0
    3.0731   -1.3915   -0.6262 C   0  0  0  0  0  0  0  0  0  0  0  0
    4.6116   -1.4068   -0.6857 C   0  0  0  0  0  0  0  0  0  0  0  0
    5.1541   -2.7304   -1.0707 N   0  0  0  0  0  0  0  0  0  0  0  0
    4.9114   -3.3111   -2.2846 N   0  0  0  0  0  0  0  0  0  0  0  0
    4.4330   -2.5376   -3.1231 O   0  0  0  0  0  0  0  0  0  0  0  0
    5.9228   -3.4352   -0.1261 C   0  0  0  0  0  0  0  0  0  0  0  0
    6.7056   -2.8711    0.7542 N   0  0  0  0  0  0  0  0  0  0  0  0
    5.7672   -4.8130   -0.1728 N   0  0  0  0  0  0  0  0  0  0  0  0
    6.2408   -5.5544    0.8878 N   0  0  0  0  0  0  0  0  0  0  0  0
    5.5667   -6.8309    0.9079 O   0  0  0  0  0  0  0  0  0  0  0  0
    7.6528   -5.8118    0.7501 O   0  0  0  0  0  0  0  0  0  0  0  0
    0.7385    1.0451    0.2518 H   0  0  0  0  0  0  0  0  0  0  0  0
    0.6327   -0.6922    0.5789 H   0  0  0  0  0  0  0  0  0  0  0  0
    0.6251   -0.0993   -1.0952 H   0  0  0  0  0  0  0  0  0  0  0  0
    2.9607    0.1737    0.8693 H   0  0  0  0  0  0  0  0  0  0  0  0
    2.9522    0.7647   -0.7930 H   0  0  0  0  0  0  0  0  0  0  0  0
    2.6387   -1.5970   -1.6090 H   0  0  0  0  0  0  0  0  0  0  0  0
    2.7161   -2.1786    0.0514 H   0  0  0  0  0  0  0  0  0  0  0  0
    4.9673   -1.1054    0.3052 H   0  0  0  0  0  0  0  0  0  0  0  0
    4.9676   -0.6481   -1.3874 H   0  0  0  0  0  0  0  0  0  0  0  0
    6.7554   -1.8650    0.5954 H   0  0  0  0  0  0  0  0  0  0  0  0
    5.9620   -5.2280   -1.0798 H   0  0  0  0  0  0  0  0  0  0  0  0
    4.7204   -6.5464    1.2917 H   0  0  0  0  0  0  0  0  0  0  0  0
    7.9778   -5.1798    1.4157 H   0  0  0  0  0  0  0  0  0  0  0  0
  1  2  1  0  0  0  0
  1 14  1  0  0  0  0
  1 15  1  0  0  0  0
  1 16  1  0  0  0  0
  2  3  1  0  0  0  0
  2 17  1  0  0  0  0
  2 18  1  0  0  0  0
  3  4  1  0  0  0  0
  3 19  1  0  0  0  0
  3 20  1  0  0  0  0
  4  5  1  0  0  0  0
  4 21  1  0  0  0  0
  4 22  1  0  0  0  0
  5  6  1  0  0  0  0
  5  8  1  0  0  0  0
  6  7  2  0  0  0  0
  8  9  2  0  0  0  0
  8 10  1  0  0  0  0
  9 23  1  0  0  0  0
 10 11  1  0  0  0  0
 10 24  1  0  0  0  0
 11 12  1  0  0  0  0
 11 13  1  0  0  0  0
 12 25  1  0  0  0  0
 13 26  1  0  0  0  0
M  END
$$$$

 OpenBabel12201709243D

 29 28  0  0  0  0  0  0  0  0999 V2000
    0.9034   -0.1218    0.0653 C   0  0  0  0  0  0  0  0  0  0  0  0
    2.4217   -0.0802    0.0348 C   0  0  0  0  0  0  0  0  0  0  0  0
    3.0265   -1.4648   -0.2143 C   0  0  0  0  0  0  0  0  0  0  0  0
    4.5477   -1.3851   -0.2690 C   0  0  0  0  0  0  0  0  0  0  0  0
    5.1768   -2.7711   -0.3840 C   0  0  0  0  0  0  0  0  0  0  0  0
    6.6532   -2.6923   -0.3456 N   0  0  0  0  0  0  0  0  0  0  0  0
    7.4151   -2.5587   -1.4716 N   0  0  0  0  0  0  0  0  0  0  0  0
    6.7603   -2.3684   -2.5027 O   0  0  0  0  0  0  0  0  0  0  0  0
    7.2757   -2.9702    0.8889 C   0  0  0  0  0  0  0  0  0  0  0  0
    6.7667   -2.6679    2.0509 N   0  0  0  0  0  0  0  0  0  0  0  0
    8.4616   -3.6774    0.7844 N   0  0  0  0  0  0  0  0  0  0  0  0
    8.9643   -4.2552    1.9248 N   0  0  0  0  0  0  0  0  0  0  0  0
    9.8064   -5.3692    1.5682 O   0  0  0  0  0  0  0  0  0  0  0  0
    9.7626   -3.3188    2.6758 O   0  0  0  0  0  0  0  0  0  0  0  0
    0.5058    0.8814    0.2479 H   0  0  0  0  0  0  0  0  0  0  0  0
    0.5441   -0.7810    0.8614 H   0  0  0  0  0  0  0  0  0  0  0  0
    0.5012   -0.4789   -0.8876 H   0  0  0  0  0  0  0  0  0  0  0  0
    2.7893    0.3146    0.9876 H   0  0  0  0  0  0  0  0  0  0  0  0
    2.7468    0.6119   -0.7510 H   0  0  0  0  0  0  0  0  0  0  0  0
    2.6419   -1.8766   -1.1557 H   0  0  0  0  0  0  0  0  0  0  0  0
    2.7127   -2.1447    0.5854 H   0  0  0  0  0  0  0  0  0  0  0  0
    4.9200   -0.8743    0.6243 H   0  0  0  0  0  0  0  0  0  0  0  0
    4.8559   -0.7678   -1.1238 H   0  0  0  0  0  0  0  0  0  0  0  0
    4.8426   -3.2618   -1.3088 H   0  0  0  0  0  0  0  0  0  0  0  0
    4.8139   -3.4217    0.4241 H   0  0  0  0  0  0  0  0  0  0  0  0
    5.9117   -2.1250    1.9414 H   0  0  0  0  0  0  0  0  0  0  0  0
    9.1605   -3.2867    0.1609 H   0  0  0  0  0  0  0  0  0  0  0  0
    9.1218   -6.0539    1.4811 H   0  0  0  0  0  0  0  0  0  0  0  0
    9.1090   -3.0970    3.3637 H   0  0  0  0  0  0  0  0  0  0  0  0
  1  2  1  0  0  0  0
  1 15  1  0  0  0  0
  1 16  1  0  0  0  0
  1 17  1  0  0  0  0
  2  3  1  0  0  0  0
  2 18  1  0  0  0  0
  2 19  1  0  0  0  0
  3  4  1  0  0  0  0
  3 20  1  0  0  0  0
  3 21  1  0  0  0  0
  4  5  1  0  0  0  0
  4 22  1  0  0  0  0
  4 23  1  0  0  0  0
  5  6  1  0  0  0  0
  5 24  1  0  0  0  0
  5 25  1  0  0  0  0
  6  7  1  0  0  0  0
  6  9  1  0  0  0  0
  7  8  2  0  0  0  0
  9 10  2  0  0  0  0
  9 11  1  0  0  0  0
 10 26  1  0  0  0  0
 11 12  1  0  0  0  0
 11 27  1  0  0  0  0
 12 13  1  0  0  0  0
 12 14  1  0  0  0  0
 13 28  1  0  0  0  0
 14 29  1  0  0  0  0
M  END
$$$$

 OpenBabel12201709243D

 23 22  0  0  1  0  0  0  0  0999 V2000
    4.7466    0.5633    2.9513 C   0  0  0  0  0  0  0  0  0  0  0  0
    4.4603    0.3762    1.4710 C   0  0  0  0  0  0  0  0  0  0  0  0
    5.2402    1.7291    0.5436 S   0  0  0  0  0  0  0  0  0  0  0  0
    4.7886    1.2352   -1.1493 C   0  0  0  0  0  0  0  0  0  0  0  0
    5.3744    2.1982   -2.1862 C   0  0  0  0  0  0  0  0  0  0  0  0
    6.9055    2.3173   -2.1850 C   0  0  3  0  0  0  0  0  0  0  0  0
    7.5853    1.0328   -2.5335 N   0  0  0  0  0  0  0  0  0  0  0  0
    7.3809    3.3863   -3.1865 C   0  0  0  0  0  0  0  0  0  0  0  0
    6.8035    4.4287   -3.4532 O   0  0  0  0  0  0  0  0  0  0  0  0
    8.5774    3.0338   -3.7312 O   0  0  0  0  0  0  0  0  0  0  0  0
    4.2764   -0.2384    3.5296 H   0  0  0  0  0  0  0  0  0  0  0  0
    4.3490    1.5154    3.3204 H   0  0  0  0  0  0  0  0  0  0  0  0
    5.8222    0.5339    3.1587 H   0  0  0  0  0  0  0  0  0  0  0  0
    3.3810    0.3855    1.2939 H   0  0  0  0  0  0  0  0  0  0  0  0
    4.8669   -0.5822    1.1326 H   0  0  0  0  0  0  0  0  0  0  0  0
    3.6966    1.2376   -1.2332 H   0  0  0  0  0  0  0  0  0  0  0  0
    5.1371    0.2144   -1.3353 H   0  0  0  0  0  0  0  0  0  0  0  0
    4.9340    3.1925   -2.0328 H   0  0  0  0  0  0  0  0  0  0  0  0
    5.0356    1.8840   -3.1828 H   0  0  0  0  0  0  0  0  0  0  0  0
    7.2843    2.6445   -1.2111 H   0  0  0  0  0  0  0  0  0  0  0  0
    7.1147    0.6287   -3.3495 H   0  0  0  0  0  0  0  0  0  0  0  0
    7.4130    0.3692   -1.7734 H   0  0  0  0  0  0  0  0  0  0  0  0
    8.7892    2.1429   -3.3543 H   0  0  0  0  0  0  0  0  0  0  0  0
  1  2  1  0  0  0  0
  1 11  1  0  0  0  0
  1 12  1  0  0  0  0
  1 13  1  0  0  0  0
  2  3  1  0  0  0  0
  2 14  1  0  0  0  0
  2 15  1  0  0  0  0
  3  4  1  0  0  0  0
  4  5  1  0  0  0  0
  4 16  1  0  0  0  0
  4 17  1  0  0  0  0
  5  6  1  0  0  0  0
  5 18  1  0  0  0  0
  5 19  1  0  0  0  0
  6  7  1  0  0  0  0
  6  8  1  0  0  0  0
  6 20  1  0  0  0  0
  7 21  1  0  0  0  0
  7 22  1  0  0  0  0
  8  9  2  0  0  0  0
  8 10  1  0  0  0  0
 10 23  1  0  0  0  0
M  END
$$$$

 OpenBabel12201709243D

 32 32  0  0  0  0  0  0  0  0999 V2000
    2.0116    2.1478    1.4987 C   0  0  0  0  0  0  0  0  0  0  0  0
    2.8627    2.2798    0.4740 C   0  0  0  0  0  0  0  0  0  0  0  0
    3.1417    1.2275   -0.5584 C   0  0  0  0  0  0  0  0  0  0  0  0
    4.5411    0.9113   -0.5225 O   0  0  0  0  0  0  0  0  0  0  0  0
    5.3033    1.6618   -1.3511 C   0  0  0  0  0  0  0  0  0  0  0  0
    4.9297    2.6064   -2.0268 O   0  0  0  0  0  0  0  0  0  0  0  0
    6.7352    1.3225   -1.2036 C   0  0  0  0  0  0  0  0  0  0  0  0
    7.6106    2.4214   -1.1288 C   0  0  0  0  0  0  0  0  0  0  0  0
    8.9878    2.2299   -1.0281 C   0  0  0  0  0  0  0  0  0  0  0  0
    9.5037    0.9383   -0.9980 C   0  0  0  0  0  0  0  0  0  0  0  0
    8.6440   -0.1614   -1.0661 C   0  0  0  0  0  0  0  0  0  0  0  0
    7.2510    0.0198   -1.1704 C   0  0  0  0  0  0  0  0  0  0  0  0
    6.3906   -1.1741   -1.3564 C   0  0  0  0  0  0  0  0  0  0  0  0
    5.4206   -1.2000   -2.0948 O   0  0  0  0  0  0  0  0  0  0  0  0
    6.8670   -2.1951   -0.6017 O   0  0  0  0  0  0  0  0  0  0  0  0
    6.1298   -3.4242   -0.6566 C   0  0  0  0  0  0  0  0  0  0  0  0
    6.9865   -4.4732   -1.3003 C   0  0  0  0  0  0  0  0  0  0  0  0
    6.6472   -5.1494   -2.4063 C   0  0  0  0  0  0  0  0  0  0  0  0
    1.8716    2.9587    2.2062 H   0  0  0  0  0  0  0  0  0  0  0  0
    1.4408    1.2390    1.6549 H   0  0  0  0  0  0  0  0  0  0  0  0
    3.4042    3.2169    0.3559 H   0  0  0  0  0  0  0  0  0  0  0  0
    2.8222    1.5646   -1.5509 H   0  0  0  0  0  0  0  0  0  0  0  0
    2.5907    0.3047   -0.3461 H   0  0  0  0  0  0  0  0  0  0  0  0
    7.2161    3.4370   -1.1610 H   0  0  0  0  0  0  0  0  0  0  0  0
    9.6539    3.0885   -0.9875 H   0  0  0  0  0  0  0  0  0  0  0  0
   10.5794    0.7854   -0.9403 H   0  0  0  0  0  0  0  0  0  0  0  0
    9.0726   -1.1610   -1.0695 H   0  0  0  0  0  0  0  0  0  0  0  0
    5.1616   -3.3213   -1.1588 H   0  0  0  0  0  0  0  0  0  0  0  0
    5.9255   -3.7244    0.3766 H   0  0  0  0  0  0  0  0  0  0  0  0
    7.9300   -4.7014   -0.8106 H   0  0  0  0  0  0  0  0  0  0  0  0
    5.7129   -4.9574   -2.9272 H   0  0  0  0  0  0  0  0  0  0  0  0
    7.3006   -5.9120   -2.8188 H   0  0  0  0  0  0  0  0  0  0  0  0
  1  2  2  0  0  0  0
  1 19  1  0  0  0  0
  1 20  1  0  0  0  0
  2  3  1  0  0  0  0
  2 21  1  0  0  0  0
  3  4  1  0  0  0  0
  3 22  1  0  0  0  0
  3 23  1  0  0  0  0
  4  5  1  0  0  0  0
  5  6  2  0  0  0  0
  5  7  1  0  0  0  0
  7  8  2  0  0  0  0
  7 12  1  0  0  0  0
  8  9  1  0  0  0  0
  8 24  1  0  0  0  0
  9 10  2  0  0  0  0
  9 25  1  0  0  0  0
 10 11  1  0  0  0  0
 10 26  1  0  0  0  0
 11 12  2  0  0  0  0
 11 27  1  0  0  0  0
 12 13  1  0  0  0  0
 13 14  2  0  0  0  0
 13 15  1  0  0  0  0
 15 16  1  0  0  0  0
 16 17  1  0  0  0  0
 16 28  1  0  0  0  0
 16 29  1  0  0  0  0
 17 18  2  0  0  0  0
 17 30  1  0  0  0  0
 18 31  1  0  0  0  0
 18 32  1  0  0  0  0
M  END
$$$$

 OpenBabel12201709243D

 37 36  0  0  0  0  0  0  0  0999 V2000
    3.0327   -0.5210    2.2783 C   0  0  0  0  0  0  0  0  0  0  0  0
    4.1394   -0.7027    1.2416 C   0  0  0  0  0  0  0  0  0  0  0  0
    4.7746    0.5676    0.8617 N   0  0  0  0  0  0  0  0  0  0  0  0
    6.0459    0.9433    1.4968 C   0  0  0  0  0  0  0  0  0  0  0  0
    6.4985    0.2086    2.7561 C   0  0  0  0  0  0  0  0  0  0  0  0
    4.1132    1.3312   -0.1386 C   0  0  0  0  0  0  0  0  0  0  0  0
    2.9815    0.9994   -0.5206 O   0  0  0  0  0  0  0  0  0  0  0  0
    4.7716    2.5670   -0.7538 C   0  0  0  0  0  0  0  0  0  0  0  0
    4.0648    3.6299   -1.2160 C   0  0  0  0  0  0  0  0  0  0  0  0
    4.7101    4.8575   -1.8100 C   0  0  0  0  0  0  0  0  0  0  0  0
    2.6689    3.6006   -1.2712 O   0  0  0  0  0  0  0  0  0  0  0  0
    1.5213    4.8942   -1.2233 P   0  0  0  0  0  0  0  0  0  0  0  0
    2.0932    5.4724   -2.5250 O   0  0  0  0  0  0  0  0  0  0  0  0
    0.3233    3.8387   -1.6274 O   0  0  0  0  0  0  0  0  0  0  0  0
   -0.3341    3.1796   -0.5680 C   0  0  0  0  0  0  0  0  0  0  0  0
    0.3736    6.1879   -1.1755 O   0  0  0  0  0  0  0  0  0  0  0  0
   -0.4071    6.4736   -2.3257 C   0  0  0  0  0  0  0  0  0  0  0  0
    6.4882    2.4949   -1.0516 Cl  0  0  0  0  0  0  0  0  0  0  0  0
    2.6156   -1.4953    2.5564 H   0  0  0  0  0  0  0  0  0  0  0  0
    2.2137    0.0914    1.8851 H   0  0  0  0  0  0  0  0  0  0  0  0
    3.4042   -0.0369    3.1848 H   0  0  0  0  0  0  0  0  0  0  0  0
    3.7062   -1.1631    0.3471 H   0  0  0  0  0  0  0  0  0  0  0  0
    4.8877   -1.4068    1.6060 H   0  0  0  0  0  0  0  0  0  0  0  0
    6.0091    2.0146    1.7152 H   0  0  0  0  0  0  0  0  0  0  0  0
    6.8294    0.7494    0.7619 H   0  0  0  0  0  0  0  0  0  0  0  0
    5.7589    0.2547    3.5576 H   0  0  0  0  0  0  0  0  0  0  0  0
    7.4270    0.6632    3.1232 H   0  0  0  0  0  0  0  0  0  0  0  0
    6.7318   -0.8411    2.5467 H   0  0  0  0  0  0  0  0  0  0  0  0
    5.7978    4.8032   -1.8947 H   0  0  0  0  0  0  0  0  0  0  0  0
    4.4915    5.7332   -1.1903 H   0  0  0  0  0  0  0  0  0  0  0  0
    4.3562    5.0262   -2.8294 H   0  0  0  0  0  0  0  0  0  0  0  0
   -1.3223    2.8665   -0.9164 H   0  0  0  0  0  0  0  0  0  0  0  0
   -0.4603    3.8489    0.2871 H   0  0  0  0  0  0  0  0  0  0  0  0
    0.2360    2.2967   -0.2716 H   0  0  0  0  0  0  0  0  0  0  0  0
   -1.0186    7.3536   -2.1057 H   0  0  0  0  0  0  0  0  0  0  0  0
   -1.0780    5.6437   -2.5586 H   0  0  0  0  0  0  0  0  0  0  0  0
    0.2148    6.7131   -3.1918 H   0  0  0  0  0  0  0  0  0  0  0  0
  1  2  1  0  0  0  0
  1 19  1  0  0  0  0
  1 20  1  0  0  0  0
  1 21  1  0  0  0  0
  2  3  1  0  0  0  0
  2 22  1  0  0  0  0
  2 23  1  0  0  0  0
  3  4  1  0  0  0  0
  3  6  1  0  0  0  0
  4  5  1  0  0  0  0
  4 24  1  0  0  0  0
  4 25  1  0  0  0  0
  5 26  1  0  0  0  0
  5 27  1  0  0  0  0
  5 28  1  0  0  0  0
  6  7  2  0  0  0  0
  6  8  1  0  0  0  0
  8  9  2  3  0  0  0
  8 18  1  0  0  0  0
  9 10  1  0  0  0  0
  9 11  1  0  0  0  0
 10 29  1  0  0  0  0
 10 30  1  0  0  0  0
 10 31  1  0  0  0  0
 11 12  1  0  0  0  0
 12 13  2  0  0  0  0
 12 14  1  0  0  0  0
 12 16  1  0  0  0  0
 14 15  1  0  0  0  0
 15 32  1  0  0  0  0
 15 33  1  0  0  0  0
 15 34  1  0  0  0  0
 16 17  1  0  0  0  0
 17 35  1  0  0  0  0
 17 36  1  0  0  0  0
 17 37  1  0  0  0  0
M  END
$$$$

 OpenBabel12201709243D

 23 24  0  0  0  0  0  0  0  0999 V2000
    1.0293    0.0933    0.1957 O   0  0  0  0  0  0  0  0  0  0  0  0
    2.3828    0.0609   -0.0241 C   0  0  0  0  0  0  0  0  0  0  0  0
    3.0778    1.2782   -0.0098 C   0  0  0  0  0  0  0  0  0  0  0  0
    4.4540    1.3001   -0.1970 C   0  0  0  0  0  0  0  0  0  0  0  0
    5.1394    0.1081   -0.3965 C   0  0  0  0  0  0  0  0  0  0  0  0
    4.4398   -1.1029   -0.4223 C   0  0  0  0  0  0  0  0  0  0  0  0
    3.0409   -1.1704   -0.2385 C   0  0  0  0  0  0  0  0  0  0  0  0
    2.3493   -2.4898   -0.3075 C   0  0  0  0  0  0  0  0  0  0  0  0
    2.9685   -3.6697    0.1532 C   0  0  0  0  0  0  0  0  0  0  0  0
    2.3570   -4.9232    0.0268 C   0  0  0  0  0  0  0  0  0  0  0  0
    1.0931   -5.0284   -0.5413 C   0  0  0  0  0  0  0  0  0  0  0  0
    0.4446   -3.8814   -0.9843 C   0  0  0  0  0  0  0  0  0  0  0  0
    1.0716   -2.6342   -0.8774 C   0  0  0  0  0  0  0  0  0  0  0  0
    0.7439    1.0157    0.2841 H   0  0  0  0  0  0  0  0  0  0  0  0
    2.5564    2.2167    0.1450 H   0  0  0  0  0  0  0  0  0  0  0  0
    4.9946    2.2434   -0.1890 H   0  0  0  0  0  0  0  0  0  0  0  0
    6.2167    0.1136   -0.5407 H   0  0  0  0  0  0  0  0  0  0  0  0
    5.0122   -2.0095   -0.6095 H   0  0  0  0  0  0  0  0  0  0  0  0
    3.9490   -3.6305    0.6219 H   0  0  0  0  0  0  0  0  0  0  0  0
    2.8730   -5.8149    0.3727 H   0  0  0  0  0  0  0  0  0  0  0  0
    0.6149   -5.9987   -0.6404 H   0  0  0  0  0  0  0  0  0  0  0  0
   -0.5475   -3.9496   -1.4225 H   0  0  0  0  0  0  0  0  0  0  0  0
    0.5403   -1.7659   -1.2605 H   0  0  0  0  0  0  0  0  0  0  0  0
  1  2  1  0  0  0  0
  1 14  1  0  0  0  0
  2  3  2  0  0  0  0
  2  7  1  0  0  0  0
  3  4  1  0  0  0  0
  3 15  1  0  0  0  0
  4  5  2  0  0  0  0
  4 16  1  0  0  0  0
  5  6  1  0  0  0  0
  5 17  1  0  0  0  0
  6  7  2  0  0  0  0
  6 18  1  0  0  0  0
  7  8  1  0  0  0  0
  8  9  2  0  0  0  0
  8 13  1  0  0  0  0
  9 10  1  0  0  0  0
  9 19  1  0  0  0  0
 10 11  2  0  0  0  0
 10 20  1  0  0  0  0
 11 12  1  0  0  0  0
 11 21  1  0  0  0  0
 12 13  2  0  0  0  0
 12 22  1  0  0  0  0
 13 23  1  0  0  0  0
M  END
$$$$

 OpenBabel12201709243D

 42 44  0  0  1  0  0  0  0  0999 V2000
    0.7299    0.0057    0.1791 C   0  0  0  0  0  0  0  0  0  0  0  0
    2.2599   -0.0041    0.2468 C   0  0  0  0  0  0  0  0  0  0  0  0
    2.7212    0.1285    1.7179 C   0  0  0  0  0  0  0  0  0  0  0  0
    2.9051   -1.5681   -0.4801 S   0  0  0  0  0  0  0  0  0  0  0  0
    4.5278   -0.7548   -0.6944 C   0  0  3  0  0  0  0  0  0  0  0  0
    5.1749   -0.6708   -2.1166 C   0  0  3  0  0  0  0  0  0  0  0  0
    6.5328   -1.1678   -2.2381 N   0  0  0  0  0  0  0  0  0  0  0  0
    7.6411   -0.8035   -1.5342 C   0  0  0  0  0  0  0  0  0  0  0  0
    8.7071   -1.3189   -1.8196 O   0  0  0  0  0  0  0  0  0  0  0  0
    7.6696    0.2877   -0.4923 C   0  0  0  0  0  0  0  0  0  0  0  0
    8.0815    1.4407   -1.1162 O   0  0  0  0  0  0  0  0  0  0  0  0
    8.3491    2.6216   -0.5164 C   0  0  0  0  0  0  0  0  0  0  0  0
    8.9255    3.6231   -1.3000 C   0  0  0  0  0  0  0  0  0  0  0  0
    9.2851    4.8470   -0.7334 C   0  0  0  0  0  0  0  0  0  0  0  0
    9.0555    5.0786    0.6259 C   0  0  0  0  0  0  0  0  0  0  0  0
    8.4545    4.0930    1.4140 C   0  0  0  0  0  0  0  0  0  0  0  0
    8.0975    2.8648    0.8499 C   0  0  0  0  0  0  0  0  0  0  0  0
    4.9573    0.7690   -1.8800 C   0  0  0  0  0  0  0  0  0  0  0  0
    4.9627    1.7091   -2.6550 O   0  0  0  0  0  0  0  0  0  0  0  0
    4.2752    0.6754   -0.7348 N   0  0  0  0  0  0  0  0  0  0  0  0
    2.8854    1.0608   -0.6675 C   0  0  3  0  0  0  0  0  0  0  0  0
    2.6124    2.5171   -0.4175 C   0  0  0  0  0  0  0  0  0  0  0  0
    2.9658    3.0777    0.6052 O   0  0  0  0  0  0  0  0  0  0  0  0
    1.9276    3.1902   -1.3692 O   0  0  0  0  0  0  0  0  0  0  0  0
    1.0548    5.3432   -1.7015 K   0  0  0  0  0  0  0  0  0  0  0  0
    0.3249   -0.8388    0.7772 H   0  0  0  0  0  0  0  0  0  0  0  0
    0.3863   -0.1159   -0.8694 H   0  0  0  0  0  0  0  0  0  0  0  0
    0.3267    0.9567    0.5843 H   0  0  0  0  0  0  0  0  0  0  0  0
    2.3316   -0.7163    2.3227 H   0  0  0  0  0  0  0  0  0  0  0  0
    2.3588    1.0760    2.1657 H   0  0  0  0  0  0  0  0  0  0  0  0
    3.8290    0.1175    1.8056 H   0  0  0  0  0  0  0  0  0  0  0  0
    5.2037   -1.0119    0.1463 H   0  0  0  0  0  0  0  0  0  0  0  0
    4.4974   -1.0104   -2.9280 H   0  0  0  0  0  0  0  0  0  0  0  0
    6.6621   -1.8837   -2.9756 H   0  0  0  0  0  0  0  0  0  0  0  0
    8.4030   -0.0016    0.2914 H   0  0  0  0  0  0  0  0  0  0  0  0
    6.7205    0.4690    0.0275 H   0  0  0  0  0  0  0  0  0  0  0  0
    9.1128    3.4411   -2.3512 H   0  0  0  0  0  0  0  0  0  0  0  0
    9.7484    5.6050   -1.3464 H   0  0  0  0  0  0  0  0  0  0  0  0
    9.3457    6.0227    1.0662 H   0  0  0  0  0  0  0  0  0  0  0  0
    8.2734    4.2773    2.4657 H   0  0  0  0  0  0  0  0  0  0  0  0
    7.6411    2.1139    1.4819 H   0  0  0  0  0  0  0  0  0  0  0  0
    2.4413    0.8515   -1.6733 H   0  0  0  0  0  0  0  0  0  0  0  0
  1  2  1  0  0  0  0
  1 26  1  0  0  0  0
  1 27  1  0  0  0  0
  1 28  1  0  0  0  0
  2  3  1  0  0  0  0
  2  4  1  0  0  0  0
  2 21  1  0  0  0  0
  3 29  1  0  0  0  0
  3 30  1  0  0  0  0
  3 31  1  0  0  0  0
  4  5  1  0  0  0  0
  5  6  1  0  0  0  0
  5 20  1  0  0  0  0
  5 32  1  0  0  0  0
  6  7  1  0  0  0  0
  6 18  1  0  0  0  0
  6 33  1  0  0  0  0
  7  8  1  0  0  0  0
  7 34  1  0  0  0  0
  8  9  2  0  0  0  0
  8 10  1  0  0  0  0
 10 11  1  0  0  0  0
 10 35  1  0  0  0  0
 10 36  1  0  0  0  0
 11 12  1  0  0  0  0
 12 13  2  0  0  0  0
 12 17  1  0  0  0  0
 13 14  1  0  0  0  0
 13 37  1  0  0  0  0
 14 15  2  0  0  0  0
 14 38  1  0  0  0  0
 15 16  1  0  0  0  0
 15 39  1  0  0  0  0
 16 17  2  0  0  0  0
 16 40  1  0  0  0  0
 17 41  1  0  0  0  0
 18 19  2  0  0  0  0
 18 20  1  0  0  0  0
 20 21  1  0  0  0  0
 21 22  1  0  0  0  0
 21 42  1  0  0  0  0
 22 23  2  0  0  0  0
 22 24  1  0  0  0  0
 24 25  1  0  0  0  0
M  END
$$$$

 OpenBabel12201709243D

 24 25  0  0  1  0  0  0  0  0999 V2000
    5.1161   -1.8597   -3.6308 Cl  0  0  0  0  0  0  0  0  0  0  0  0
    3.5240   -1.7650   -2.8314 C   0  0  0  0  0  0  0  0  0  0  0  0
    2.6464   -0.3487   -3.5039 Cl  0  0  0  0  0  0  0  0  0  0  0  0
    2.5842   -3.2354   -3.2473 Cl  0  0  0  0  0  0  0  0  0  0  0  0
    3.5769   -1.5992   -1.0192 S   0  0  0  0  0  0  0  0  0  0  0  0
    5.2234   -1.6413   -0.6360 N   0  0  0  0  0  0  0  0  0  0  0  0
    5.9727   -0.5147   -0.4341 C   0  0  0  0  0  0  0  0  0  0  0  0
    5.6394    0.6428   -0.6564 O   0  0  0  0  0  0  0  0  0  0  0  0
    7.2988   -0.9219    0.1692 C   0  0  3  0  0  0  0  0  0  0  0  0
    8.4701   -0.1915   -0.4857 C   0  0  0  0  0  0  0  0  0  0  0  0
    9.3895   -1.0355   -1.3006 C   0  0  0  0  0  0  0  0  0  0  0  0
    9.3667   -2.3706   -1.3193 C   0  0  0  0  0  0  0  0  0  0  0  0
    8.4181   -3.2056   -0.5271 C   0  0  0  0  0  0  0  0  0  0  0  0
    7.2716   -2.4572    0.1472 C   0  0  3  0  0  0  0  0  0  0  0  0
    5.9297   -2.8006   -0.4630 C   0  0  0  0  0  0  0  0  0  0  0  0
    5.5505   -3.9357   -0.7165 O   0  0  0  0  0  0  0  0  0  0  0  0
    7.2440   -0.5942    1.2171 H   0  0  0  0  0  0  0  0  0  0  0  0
    9.0750    0.2717    0.3052 H   0  0  0  0  0  0  0  0  0  0  0  0
    8.1209    0.6344   -1.1158 H   0  0  0  0  0  0  0  0  0  0  0  0
   10.1461   -0.5119   -1.8840 H   0  0  0  0  0  0  0  0  0  0  0  0
   10.1064   -2.9026   -1.9170 H   0  0  0  0  0  0  0  0  0  0  0  0
    9.0085   -3.7070    0.2508 H   0  0  0  0  0  0  0  0  0  0  0  0
    8.0436   -4.0043   -1.1782 H   0  0  0  0  0  0  0  0  0  0  0  0
    7.2047   -2.8108    1.1857 H   0  0  0  0  0  0  0  0  0  0  0  0
  1  2  1  0  0  0  0
  2  3  1  0  0  0  0
  2  4  1  0  0  0  0
  2  5  1  0  0  0  0
  5  6  1  0  0  0  0
  6  7  1  0  0  0  0
  6 15  1  0  0  0  0
  7  8  2  0  0  0  0
  7  9  1  0  0  0  0
  9 10  1  0  0  0  0
  9 14  1  0  0  0  0
  9 17  1  0  0  0  0
 10 11  1  0  0  0  0
 10 18  1  0  0  0  0
 10 19  1  0  0  0  0
 11 12  2  0  0  0  0
 11 20  1  0  0  0  0
 12 13  1  0  0  0  0
 12 21  1  0  0  0  0
 13 14  1  0  0  0  0
 13 22  1  0  0  0  0
 13 23  1  0  0  0  0
 14 15  1  0  0  0  0
 14 24  1  0  0  0  0
 15 16  2  0  0  0  0
M  END
$$$$

 OpenBabel12201709243D

 20 21  0  0  0  0  0  0  0  0999 V2000
    4.5834   -1.3316   -0.0219 Cl  0  0  0  0  0  0  0  0  0  0  0  0
    3.2494   -0.3227   -0.6518 C   0  0  0  0  0  0  0  0  0  0  0  0
    2.4475   -1.2184   -1.9840 Cl  0  0  0  0  0  0  0  0  0  0  0  0
    2.0495   -0.1075    0.6664 Cl  0  0  0  0  0  0  0  0  0  0  0  0
    3.7440    1.3233   -1.2668 S   0  0  0  0  0  0  0  0  0  0  0  0
    5.4056    1.3783   -0.9923 N   0  0  0  0  0  0  0  0  0  0  0  0
    6.3413    0.8957   -1.8730 C   0  0  0  0  0  0  0  0  0  0  0  0
    6.1943    0.3113   -2.9305 O   0  0  0  0  0  0  0  0  0  0  0  0
    7.6452    1.1983   -1.2840 C   0  0  0  0  0  0  0  0  0  0  0  0
    8.9183    0.9521   -1.7600 C   0  0  0  0  0  0  0  0  0  0  0  0
    9.9898    1.3763   -0.9674 C   0  0  0  0  0  0  0  0  0  0  0  0
    9.7666    2.0237    0.2658 C   0  0  0  0  0  0  0  0  0  0  0  0
    8.4677    2.2584    0.7281 C   0  0  0  0  0  0  0  0  0  0  0  0
    7.4258    1.8331   -0.0733 C   0  0  0  0  0  0  0  0  0  0  0  0
    5.9793    1.9410    0.1205 C   0  0  0  0  0  0  0  0  0  0  0  0
    5.4645    2.4368    1.1052 O   0  0  0  0  0  0  0  0  0  0  0  0
    9.0779    0.4549   -2.7118 H   0  0  0  0  0  0  0  0  0  0  0  0
   11.0112    1.2085   -1.3064 H   0  0  0  0  0  0  0  0  0  0  0  0
   10.6185    2.3459    0.8631 H   0  0  0  0  0  0  0  0  0  0  0  0
    8.2835    2.7576    1.6744 H   0  0  0  0  0  0  0  0  0  0  0  0
  1  2  1  0  0  0  0
  2  3  1  0  0  0  0
  2  4  1  0  0  0  0
  2  5  1  0  0  0  0
  5  6  1  0  0  0  0
  6  7  1  0  0  0  0
  6 15  1  0  0  0  0
  7  8  2  0  0  0  0
  7  9  1  0  0  0  0
  9 10  2  0  0  0  0
  9 14  1  0  0  0  0
 10 11  1  0  0  0  0
 10 17  1  0  0  0  0
 11 12  2  0  0  0  0
 11 18  1  0  0  0  0
 12 13  1  0  0  0  0
 12 19  1  0  0  0  0
 13 14  2  0  0  0  0
 13 20  1  0  0  0  0
 14 15  1  0  0  0  0
 15 16  2  0  0  0  0
M  END
$$$$

 OpenBabel12201709243D

 17 17  0  0  0  0  0  0  0  0999 V2000
    1.1008    0.0335   -0.1897 N   0  0  0  0  0  0  0  0  0  0  0  0
    2.4977   -0.0009   -0.0088 C   0  0  0  0  0  0  0  0  0  0  0  0
    3.2031    1.2076   -0.0444 C   0  0  0  0  0  0  0  0  0  0  0  0
    4.5945    1.2145    0.0030 C   0  0  0  0  0  0  0  0  0  0  0  0
    5.4406    2.7118   -0.0006 Cl  0  0  0  0  0  0  0  0  0  0  0  0
    5.3039    0.0191    0.0413 C   0  0  0  0  0  0  0  0  0  0  0  0
    4.6235   -1.2098    0.0142 C   0  0  0  0  0  0  0  0  0  0  0  0
    5.4848   -2.4199    0.0514 C   0  0  0  0  0  0  0  0  0  0  0  0
    6.5784   -2.4080    0.5940 O   0  0  0  0  0  0  0  0  0  0  0  0
    5.0340   -3.4869   -0.6343 O   0  0  0  0  0  0  0  0  0  0  0  0
    3.2198   -1.2177   -0.0200 C   0  0  0  0  0  0  0  0  0  0  0  0
    2.3105   -2.6989   -0.0236 Cl  0  0  0  0  0  0  0  0  0  0  0  0
    0.6447    0.8679    0.1693 H   0  0  0  0  0  0  0  0  0  0  0  0
    0.6318   -0.8213    0.1062 H   0  0  0  0  0  0  0  0  0  0  0  0
    2.6646    2.1506   -0.1059 H   0  0  0  0  0  0  0  0  0  0  0  0
    6.3929    0.0390    0.0788 H   0  0  0  0  0  0  0  0  0  0  0  0
    4.1259   -3.4109   -0.9870 H   0  0  0  0  0  0  0  0  0  0  0  0
  1  2  1  0  0  0  0
  1 13  1  0  0  0  0
  1 14  1  0  0  0  0
  2  3  2  0  0  0  0
  2 11  1  0  0  0  0
  3  4  1  0  0  0  0
  3 15  1  0  0  0  0
  4  5  1  0  0  0  0
  4  6  2  0  0  0  0
  6  7  1  0  0  0  0
  6 16  1  0  0  0  0
  7  8  1  0  0  0  0
  7 11  2  0  0  0  0
  8  9  2  0  0  0  0
  8 10  1  0  0  0  0
 10 17  1  0  0  0  0
 11 12  1  0  0  0  0
M  END
$$$$

 OpenBabel12201709243D

 47 49  0  0  0  0  0  0  0  0999 V2000
    1.4121   -1.9627   -3.1526 C   0  0  0  0  0  0  0  0  0  0  0  0
    2.7841   -1.7053   -2.5995 C   0  0  0  0  0  0  0  0  0  0  0  0
    3.7231   -1.1608   -3.5025 C   0  0  0  0  0  0  0  0  0  0  0  0
    5.0785   -1.0818   -3.1881 C   0  0  0  0  0  0  0  0  0  0  0  0
    5.5262   -1.5634   -1.9671 C   0  0  0  0  0  0  0  0  0  0  0  0
    4.6039   -2.0347   -1.0343 C   0  0  0  0  0  0  0  0  0  0  0  0
    3.2300   -2.0681   -1.3185 C   0  0  0  0  0  0  0  0  0  0  0  0
    2.4842   -2.4424   -0.2254 O   0  0  0  0  0  0  0  0  0  0  0  0
    0.7546   -2.4759   -0.2260 P   0  0  0  0  0  0  0  0  0  0  0  0
    0.7732   -3.9812   -0.5423 O   0  0  0  0  0  0  0  0  0  0  0  0
    0.7523   -2.2735    1.4235 O   0  0  0  0  0  0  0  0  0  0  0  0
    1.3534   -1.2440    2.1022 C   0  0  0  0  0  0  0  0  0  0  0  0
    1.9521   -0.1524    1.4659 C   0  0  0  0  0  0  0  0  0  0  0  0
    2.6668    0.7938    2.2052 C   0  0  0  0  0  0  0  0  0  0  0  0
    2.7597    0.6741    3.5871 C   0  0  0  0  0  0  0  0  0  0  0  0
    2.1221   -0.3819    4.2341 C   0  0  0  0  0  0  0  0  0  0  0  0
    1.4041   -1.3434    3.5011 C   0  0  0  0  0  0  0  0  0  0  0  0
    0.7534   -2.4828    4.2346 C   0  0  0  0  0  0  0  0  0  0  0  0
   -0.9751   -2.5094   -0.2266 O   0  0  0  0  0  0  0  0  0  0  0  0
   -1.6849   -1.3260   -0.2163 C   0  0  0  0  0  0  0  0  0  0  0  0
   -1.1418   -0.1314   -0.7023 C   0  0  0  0  0  0  0  0  0  0  0  0
   -1.8697    1.0606   -0.6593 C   0  0  0  0  0  0  0  0  0  0  0  0
   -3.1475    1.0785   -0.1087 C   0  0  0  0  0  0  0  0  0  0  0  0
   -3.7105   -0.1051    0.3452 C   0  0  0  0  0  0  0  0  0  0  0  0
   -3.0060   -1.3222    0.2754 C   0  0  0  0  0  0  0  0  0  0  0  0
   -3.7485   -2.5765    0.6358 C   0  0  0  0  0  0  0  0  0  0  0  0
    1.3162   -1.5963   -4.1814 H   0  0  0  0  0  0  0  0  0  0  0  0
    0.6393   -1.4546   -2.5835 H   0  0  0  0  0  0  0  0  0  0  0  0
    1.2186   -3.0394   -3.1800 H   0  0  0  0  0  0  0  0  0  0  0  0
    3.4056   -0.8205   -4.4877 H   0  0  0  0  0  0  0  0  0  0  0  0
    5.7833   -0.6795   -3.9111 H   0  0  0  0  0  0  0  0  0  0  0  0
    6.5874   -1.5663   -1.7350 H   0  0  0  0  0  0  0  0  0  0  0  0
    4.9599   -2.3923   -0.0697 H   0  0  0  0  0  0  0  0  0  0  0  0
    1.9214   -0.0212    0.3915 H   0  0  0  0  0  0  0  0  0  0  0  0
    3.1684    1.6128    1.6971 H   0  0  0  0  0  0  0  0  0  0  0  0
    3.3312    1.3997    4.1610 H   0  0  0  0  0  0  0  0  0  0  0  0
    2.1992   -0.4601    5.3169 H   0  0  0  0  0  0  0  0  0  0  0  0
    0.7011   -2.2828    5.3116 H   0  0  0  0  0  0  0  0  0  0  0  0
    1.3239   -3.4054    4.0882 H   0  0  0  0  0  0  0  0  0  0  0  0
   -0.2749   -2.6274    3.8877 H   0  0  0  0  0  0  0  0  0  0  0  0
   -0.1552   -0.0827   -1.1490 H   0  0  0  0  0  0  0  0  0  0  0  0
   -1.4420    1.9761   -1.0604 H   0  0  0  0  0  0  0  0  0  0  0  0
   -3.7043    2.0109   -0.0536 H   0  0  0  0  0  0  0  0  0  0  0  0
   -4.7230   -0.0841    0.7471 H   0  0  0  0  0  0  0  0  0  0  0  0
   -4.4720   -2.3817    1.4356 H   0  0  0  0  0  0  0  0  0  0  0  0
   -3.0787   -3.3697    0.9852 H   0  0  0  0  0  0  0  0  0  0  0  0
   -4.3015   -2.9300   -0.2417 H   0  0  0  0  0  0  0  0  0  0  0  0
  1  2  1  0  0  0  0
  1 27  1  0  0  0  0
  1 28  1  0  0  0  0
  1 29  1  0  0  0  0
  2  3  2  0  0  0  0
  2  7  1  0  0  0  0
  3  4  1  0  0  0  0
  3 30  1  0  0  0  0
  4  5  2  0  0  0  0
  4 31  1  0  0  0  0
  5  6  1  0  0  0  0
  5 32  1  0  0  0  0
  6  7  2  0  0  0  0
  6 33  1  0  0  0  0
  7  8  1  0  0  0  0
  8  9  1  0  0  0  0
  9 10  2  0  0  0  0
  9 11  1  0  0  0  0
  9 19  1  0  0  0  0
 11 12  1  0  0  0  0
 12 13  2  0  0  0  0
 12 17  1  0  0  0  0
 13 14  1  0  0  0  0
 13 34  1  0  0  0  0
 14 15  2  0  0  0  0
 14 35  1  0  0  0  0
 15 16  1  0  0  0  0
 15 36  1  0  0  0  0
 16 17  2  0  0  0  0
 16 37  1  0  0  0  0
 17 18  1  0  0  0  0
 18 38  1  0  0  0  0
 18 39  1  0  0  0  0
 18 40  1  0  0  0  0
 19 20  1  0  0  0  0
 20 21  2  0  0  0  0
 20 25  1  0  0  0  0
 21 22  1  0  0  0  0
 21 41  1  0  0  0  0
 22 23  2  0  0  0  0
 22 42  1  0  0  0  0
 23 24  1  0  0  0  0
 23 43  1  0  0  0  0
 24 25  2  0  0  0  0
 24 44  1  0  0  0  0
 25 26  1  0  0  0  0
 26 45  1  0  0  0  0
 26 46  1  0  0  0  0
 26 47  1  0  0  0  0
M  END
$$$$

 OpenBabel12201709243D

 27 32  0  0  1  0  0  0  0  0999 V2000
    3.0460    1.5269   -0.7606 Cl  0  0  0  0  0  0  0  0  0  0  0  0
    3.5328    0.0119    0.0355 C   0  0  3  0  0  0  0  0  0  0  0  0
    2.4143   -0.8963    0.6189 C   0  0  3  0  0  0  0  0  0  0  0  0
    1.1192   -1.2509   -0.5206 Cl  0  0  0  0  0  0  0  0  0  0  0  0
    1.9049   -0.3124    2.0174 C   0  0  3  0  0  0  0  0  0  0  0  0
    2.1026    1.2071    2.1622 C   0  0  3  0  0  0  0  0  0  0  0  0
    1.5991    1.6489    3.5232 C   0  0  3  0  0  0  0  0  0  0  0  0
    2.4138    2.5759    4.2418 O   0  0  0  0  0  0  0  0  0  0  0  0
    2.6188    1.1825    4.4888 C   0  0  3  0  0  0  0  0  0  0  0  0
    3.6420    0.4899    3.6490 C   0  0  3  0  0  0  0  0  0  0  0  0
    3.6709    1.2044    2.2917 C   0  0  3  0  0  0  0  0  0  0  0  0
    4.3555    0.1624    1.3273 C   0  0  3  0  0  0  0  0  0  0  0  0
    6.0453    0.5623    1.0115 Cl  0  0  0  0  0  0  0  0  0  0  0  0
    4.0896   -1.2564    2.0439 C   0  0  3  0  0  0  0  0  0  0  0  0
    5.4381   -2.0467    2.8616 Cl  0  0  0  0  0  0  0  0  0  0  0  0
    3.0356   -0.7831    3.0457 C   0  0  3  0  0  0  0  0  0  0  0  0
    3.2607   -2.1228    1.0694 C   0  0  0  0  0  0  0  0  0  0  0  0
    4.2398   -2.9297   -0.1927 Cl  0  0  0  0  0  0  0  0  0  0  0  0
    2.2928   -3.4208    1.8581 Cl  0  0  0  0  0  0  0  0  0  0  0  0
    4.1046   -0.4890   -0.7477 H   0  0  0  0  0  0  0  0  0  0  0  0
    0.9095   -0.6638    2.3058 H   0  0  0  0  0  0  0  0  0  0  0  0
    1.6666    1.8209    1.3793 H   0  0  0  0  0  0  0  0  0  0  0  0
    0.5461    1.5536    3.7359 H   0  0  0  0  0  0  0  0  0  0  0  0
    2.3438    0.7361    5.4304 H   0  0  0  0  0  0  0  0  0  0  0  0
    4.6149    0.3775    4.1370 H   0  0  0  0  0  0  0  0  0  0  0  0
    4.1074    2.2098    2.3044 H   0  0  0  0  0  0  0  0  0  0  0  0
    2.6751   -1.5076    3.7825 H   0  0  0  0  0  0  0  0  0  0  0  0
  1  2  1  0  0  0  0
  2  3  1  0  0  0  0
  2 12  1  0  0  0  0
  2 20  1  0  0  0  0
  3  4  1  0  0  0  0
  3  5  1  0  0  0  0
  3 17  1  0  0  0  0
  5  6  1  0  0  0  0
  5 16  1  0  0  0  0
  5 21  1  0  0  0  0
  6  7  1  0  0  0  0
  6 11  1  0  0  0  0
  6 22  1  0  0  0  0
  7  8  1  0  0  0  0
  7  9  1  0  0  0  0
  7 23  1  0  0  0  0
  8  9  1  0  0  0  0
  9 10  1  0  0  0  0
  9 24  1  0  0  0  0
 10 11  1  0  0  0  0
 10 16  1  0  0  0  0
 10 25  1  0  0  0  0
 11 12  1  0  0  0  0
 11 26  1  0  0  0  0
 12 13  1  0  0  0  0
 12 14  1  0  0  0  0
 14 15  1  0  0  0  0
 14 16  1  0  0  0  0
 14 17  1  0  0  0  0
 16 27  1  0  0  0  0
 17 18  1  0  0  0  0
 17 19  1  0  0  0  0
M  END
$$$$

 OpenBabel12201709243D

 18 18  0  0  0  0  0  0  0  0999 V2000
    1.3849    0.6237    0.7694 C   0  0  0  0  0  0  0  0  0  0  0  0
    2.4967    0.0651    0.0783 O   0  0  0  0  0  0  0  0  0  0  0  0
    2.9969    0.8271   -0.9516 C   0  0  0  0  0  0  0  0  0  0  0  0
    2.9143    2.2226   -1.0076 C   0  0  0  0  0  0  0  0  0  0  0  0
    3.4592    2.9145   -2.0927 C   0  0  0  0  0  0  0  0  0  0  0  0
    4.1052    2.2182   -3.1101 C   0  0  0  0  0  0  0  0  0  0  0  0
    4.2122    0.8282   -3.0464 C   0  0  0  0  0  0  0  0  0  0  0  0
    3.6334    0.1187   -1.9899 C   0  0  0  0  0  0  0  0  0  0  0  0
    3.8669   -1.2673   -1.8759 N   0  0  0  0  0  0  0  0  0  0  0  0
    0.9957   -0.1396    1.4499 H   0  0  0  0  0  0  0  0  0  0  0  0
    0.5821    0.8922    0.0733 H   0  0  0  0  0  0  0  0  0  0  0  0
    1.6827    1.4832    1.3780 H   0  0  0  0  0  0  0  0  0  0  0  0
    2.4560    2.7979   -0.2118 H   0  0  0  0  0  0  0  0  0  0  0  0
    3.3984    3.9986   -2.1287 H   0  0  0  0  0  0  0  0  0  0  0  0
    4.5473    2.7580   -3.9437 H   0  0  0  0  0  0  0  0  0  0  0  0
    4.7560    0.3003   -3.8248 H   0  0  0  0  0  0  0  0  0  0  0  0
    3.8964   -1.7511   -2.7648 H   0  0  0  0  0  0  0  0  0  0  0  0
    3.2252   -1.6852   -1.2055 H   0  0  0  0  0  0  0  0  0  0  0  0
  1  2  1  0  0  0  0
  1 10  1  0  0  0  0
  1 11  1  0  0  0  0
  1 12  1  0  0  0  0
  2  3  1  0  0  0  0
  3  4  2  0  0  0  0
  3  8  1  0  0  0  0
  4  5  1  0  0  0  0
  4 13  1  0  0  0  0
  5  6  2  0  0  0  0
  5 14  1  0  0  0  0
  6  7  1  0  0  0  0
  6 15  1  0  0  0  0
  7  8  2  0  0  0  0
  7 16  1  0  0  0  0
  8  9  1  0  0  0  0
  9 17  1  0  0  0  0
  9 18  1  0  0  0  0
M  END
$$$$

 OpenBabel12201709243D

 27 27  0  0  1  0  0  0  0  0999 V2000
    1.0316   -0.2468   -0.0746 C   0  0  0  0  0  0  0  0  0  0  0  0
    2.4737   -0.3299    0.0821 N   0  0  0  0  0  0  0  0  0  0  0  0
    2.9462   -0.0681    1.4628 C   0  0  3  0  0  0  0  0  0  0  0  0
    2.4635   -1.1528    2.4296 C   0  0  0  0  0  0  0  0  0  0  0  0
    4.5085    0.0297    1.4375 C   0  0  3  0  0  0  0  0  0  0  0  0
    4.8945    1.0704    0.5223 O   0  0  0  0  0  0  0  0  0  0  0  0
    5.1481    0.2879    2.7902 C   0  0  0  0  0  0  0  0  0  0  0  0
    6.0364   -0.6583    3.3259 C   0  0  0  0  0  0  0  0  0  0  0  0
    6.6121   -0.4680    4.5835 C   0  0  0  0  0  0  0  0  0  0  0  0
    6.3153    0.6749    5.3201 C   0  0  0  0  0  0  0  0  0  0  0  0
    5.4427    1.6278    4.8008 C   0  0  0  0  0  0  0  0  0  0  0  0
    4.8592    1.4361    3.5460 C   0  0  0  0  0  0  0  0  0  0  0  0
    0.7799   -0.2958   -1.1389 H   0  0  0  0  0  0  0  0  0  0  0  0
    0.6265    0.6883    0.3235 H   0  0  0  0  0  0  0  0  0  0  0  0
    0.5307   -1.0931    0.4049 H   0  0  0  0  0  0  0  0  0  0  0  0
    2.9351    0.3459   -0.5346 H   0  0  0  0  0  0  0  0  0  0  0  0
    2.5455    0.9044    1.7787 H   0  0  0  0  0  0  0  0  0  0  0  0
    2.8134   -2.1438    2.1221 H   0  0  0  0  0  0  0  0  0  0  0  0
    1.3709   -1.1789    2.4896 H   0  0  0  0  0  0  0  0  0  0  0  0
    2.8210   -0.9679    3.4473 H   0  0  0  0  0  0  0  0  0  0  0  0
    4.9100   -0.9019    1.0183 H   0  0  0  0  0  0  0  0  0  0  0  0
    4.7576    1.9198    0.9701 H   0  0  0  0  0  0  0  0  0  0  0  0
    6.2810   -1.5610    2.7681 H   0  0  0  0  0  0  0  0  0  0  0  0
    7.2907   -1.2146    4.9883 H   0  0  0  0  0  0  0  0  0  0  0  0
    6.7659    0.8242    6.2990 H   0  0  0  0  0  0  0  0  0  0  0  0
    5.2119    2.5208    5.3770 H   0  0  0  0  0  0  0  0  0  0  0  0
    4.1730    2.1909    3.1721 H   0  0  0  0  0  0  0  0  0  0  0  0
  1  2  1  0  0  0  0
  1 13  1  0  0  0  0
  1 14  1  0  0  0  0
  1 15  1  0  0  0  0
  2  3  1  0  0  0  0
  2 16  1  0  0  0  0
  3  4  1  0  0  0  0
  3  5  1  0  0  0  0
  3 17  1  0  0  0  0
  4 18  1  0  0  0  0
  4 19  1  0  0  0  0
  4 20  1  0  0  0  0
  5  6  1  0  0  0  0
  5  7  1  0  0  0  0
  5 21  1  0  0  0  0
  6 22  1  0  0  0  0
  7  8  2  0  0  0  0
  7 12  1  0  0  0  0
  8  9  1  0  0  0  0
  8 23  1  0  0  0  0
  9 10  2  0  0  0  0
  9 24  1  0  0  0  0
 10 11  1  0  0  0  0
 10 25  1  0  0  0  0
 11 12  2  0  0  0  0
 11 26  1  0  0  0  0
 12 27  1  0  0  0  0
M  END
$$$$

 OpenBabel12201709243D

 18 18  0  0  0  0  0  0  0  0999 V2000
    1.1391   -2.8029   -0.7567 N   0  0  0  0  0  0  0  0  0  0  0  0
    1.8888   -2.0894   -1.7838 O   0  0  0  0  0  0  0  0  0  0  0  0
    2.6618   -1.0392   -1.2534 N   0  0  0  0  0  0  0  0  0  0  0  0
    2.0590    0.1726   -1.1295 N   0  0  0  0  0  0  0  0  0  0  0  0
    0.8300    0.1453   -1.2445 O   0  0  0  0  0  0  0  0  0  0  0  0
    4.0839   -1.1660   -1.3419 C   0  0  0  0  0  0  0  0  0  0  0  0
    4.9308   -0.0385   -1.3527 C   0  0  0  0  0  0  0  0  0  0  0  0
    6.3156   -0.1708   -1.4988 C   0  0  0  0  0  0  0  0  0  0  0  0
    6.8855   -1.4332   -1.6152 C   0  0  0  0  0  0  0  0  0  0  0  0
    6.0766   -2.5653   -1.5725 C   0  0  0  0  0  0  0  0  0  0  0  0
    4.6887   -2.4312   -1.4372 C   0  0  0  0  0  0  0  0  0  0  0  0
    0.6803   -3.5095   -1.3315 H   0  0  0  0  0  0  0  0  0  0  0  0
    0.4117   -2.1076   -0.5741 H   0  0  0  0  0  0  0  0  0  0  0  0
    4.5202    0.9649   -1.2718 H   0  0  0  0  0  0  0  0  0  0  0  0
    6.9428    0.7173   -1.5298 H   0  0  0  0  0  0  0  0  0  0  0  0
    7.9600   -1.5356   -1.7358 H   0  0  0  0  0  0  0  0  0  0  0  0
    6.5202   -3.5540   -1.6466 H   0  0  0  0  0  0  0  0  0  0  0  0
    4.0812   -3.3342   -1.3946 H   0  0  0  0  0  0  0  0  0  0  0  0
  1  2  1  0  0  0  0
  1 12  1  0  0  0  0
  1 13  1  0  0  0  0
  2  3  1  0  0  0  0
  3  4  1  0  0  0  0
  3  6  1  0  0  0  0
  4  5  2  0  0  0  0
  6  7  2  0  0  0  0
  6 11  1  0  0  0  0
  7  8  1  0  0  0  0
  7 14  1  0  0  0  0
  8  9  2  0  0  0  0
  8 15  1  0  0  0  0
  9 10  1  0  0  0  0
  9 16  1  0  0  0  0
 10 11  2  0  0  0  0
 10 17  1  0  0  0  0
 11 18  1  0  0  0  0
M  END
$$$$

 OpenBabel12201709243D

 37 38  0  0  0  0  0  0  0  0999 V2000
    5.7019   -1.2310    0.9350 C   0  0  0  0  0  0  0  0  0  0  0  0
    4.9383   -0.1382    1.5447 N   0  0  0  0  0  0  0  0  0  0  0  0
    5.4233    0.0713    2.9163 C   0  0  0  0  0  0  0  0  0  0  0  0
    5.0980    1.1251    0.7860 C   0  0  0  0  0  0  0  0  0  0  0  0
    4.5675    1.1317   -0.6732 C   0  0  0  0  0  0  0  0  0  0  0  0
    4.9002    2.4137   -1.3236 N   0  0  0  0  0  0  0  0  0  0  0  0
    3.9497    2.9291   -2.3215 C   0  0  0  0  0  0  0  0  0  0  0  0
    3.7359    2.1742   -3.6153 C   0  0  0  0  0  0  0  0  0  0  0  0
    4.2628    0.9774   -4.0641 C   0  0  0  0  0  0  0  0  0  0  0  0
    3.7350    0.5798   -5.3273 C   0  0  0  0  0  0  0  0  0  0  0  0
    2.8545    1.5076   -5.8324 C   0  0  0  0  0  0  0  0  0  0  0  0
    2.6608    2.8424   -4.7845 S   0  0  0  0  0  0  0  0  0  0  0  0
    6.2459    2.5694   -1.6764 C   0  0  0  0  0  0  0  0  0  0  0  0
    6.7990    3.8485   -1.7289 C   0  0  0  0  0  0  0  0  0  0  0  0
    8.1505    4.0112   -2.0259 C   0  0  0  0  0  0  0  0  0  0  0  0
    8.9265    2.8919   -2.2831 C   0  0  0  0  0  0  0  0  0  0  0  0
    8.3137    1.6565   -2.2096 C   0  0  0  0  0  0  0  0  0  0  0  0
    7.0125    1.4765   -1.8929 N   0  0  0  0  0  0  0  0  0  0  0  0
    5.5792   -2.1500    1.5204 H   0  0  0  0  0  0  0  0  0  0  0  0
    6.7728   -1.0058    0.8728 H   0  0  0  0  0  0  0  0  0  0  0  0
    5.3352   -1.4680   -0.0676 H   0  0  0  0  0  0  0  0  0  0  0  0
    5.3304   -0.8463    3.5077 H   0  0  0  0  0  0  0  0  0  0  0  0
    4.8255    0.8360    3.4240 H   0  0  0  0  0  0  0  0  0  0  0  0
    6.4744    0.3855    2.9389 H   0  0  0  0  0  0  0  0  0  0  0  0
    6.1516    1.4316    0.8047 H   0  0  0  0  0  0  0  0  0  0  0  0
    4.5436    1.9116    1.3179 H   0  0  0  0  0  0  0  0  0  0  0  0
    3.4778    1.0039   -0.6395 H   0  0  0  0  0  0  0  0  0  0  0  0
    4.9566    0.2857   -1.2467 H   0  0  0  0  0  0  0  0  0  0  0  0
    4.2091    3.9679   -2.5698 H   0  0  0  0  0  0  0  0  0  0  0  0
    2.9720    3.0018   -1.8243 H   0  0  0  0  0  0  0  0  0  0  0  0
    4.9856    0.3946   -3.5068 H   0  0  0  0  0  0  0  0  0  0  0  0
    3.9929   -0.3394   -5.8384 H   0  0  0  0  0  0  0  0  0  0  0  0
    2.3143    1.4670   -6.7683 H   0  0  0  0  0  0  0  0  0  0  0  0
    6.1912    4.7158   -1.4926 H   0  0  0  0  0  0  0  0  0  0  0  0
    8.5896    5.0040   -2.0433 H   0  0  0  0  0  0  0  0  0  0  0  0
    9.9801    2.9809   -2.5216 H   0  0  0  0  0  0  0  0  0  0  0  0
    8.8720    0.7426   -2.4009 H   0  0  0  0  0  0  0  0  0  0  0  0
  1  2  1  0  0  0  0
  1 19  1  0  0  0  0
  1 20  1  0  0  0  0
  1 21  1  0  0  0  0
  2  3  1  0  0  0  0
  2  4  1  0  0  0  0
  3 22  1  0  0  0  0
  3 23  1  0  0  0  0
  3 24  1  0  0  0  0
  4  5  1  0  0  0  0
  4 25  1  0  0  0  0
  4 26  1  0  0  0  0
  5  6  1  0  0  0  0
  5 27  1  0  0  0  0
  5 28  1  0  0  0  0
  6  7  1  0  0  0  0
  6 13  1  0  0  0  0
  7  8  1  0  0  0  0
  7 29  1  0  0  0  0
  7 30  1  0  0  0  0
  8  9  2  0  0  0  0
  8 12  1  0  0  0  0
  9 10  1  0  0  0  0
  9 31  1  0  0  0  0
 10 11  2  0  0  0  0
 10 32  1  0  0  0  0
 11 12  1  0  0  0  0
 11 33  1  0  0  0  0
 13 14  2  0  0  0  0
 13 18  1  0  0  0  0
 14 15  1  0  0  0  0
 14 34  1  0  0  0  0
 15 16  2  0  0  0  0
 15 35  1  0  0  0  0
 16 17  1  0  0  0  0
 16 36  1  0  0  0  0
 17 18  2  0  0  0  0
 17 37  1  0  0  0  0
M  END
$$$$

 OpenBabel12201709243D

 30 32  0  0  0  0  0  0  0  0999 V2000
    1.0326   -0.2923    0.2490 N   0  0  0  0  0  0  0  0  0  0  0  0
    0.2759   -1.3890    0.7083 C   0  0  0  0  0  0  0  0  0  0  0  0
    0.7906   -2.2822    1.6588 C   0  0  0  0  0  0  0  0  0  0  0  0
    0.1051   -3.4457    2.0077 C   0  0  0  0  0  0  0  0  0  0  0  0
   -1.1255   -3.7222    1.4228 C   0  0  0  0  0  0  0  0  0  0  0  0
   -1.6751   -2.8248    0.5081 C   0  0  0  0  0  0  0  0  0  0  0  0
   -0.9790   -1.6637    0.1529 C   0  0  0  0  0  0  0  0  0  0  0  0
    2.4246   -0.2283    0.0251 C   0  0  0  0  0  0  0  0  0  0  0  0
    3.1937   -1.3834   -0.1607 C   0  0  0  0  0  0  0  0  0  0  0  0
    4.5825   -1.3231   -0.2634 C   0  0  0  0  0  0  0  0  0  0  0  0
    5.2423   -0.0965   -0.1994 C   0  0  0  0  0  0  0  0  0  0  0  0
    6.6409   -0.0315   -0.2821 C   0  0  0  0  0  0  0  0  0  0  0  0
    7.2967    1.1973   -0.2466 C   0  0  0  0  0  0  0  0  0  0  0  0
    6.5603    2.3718   -0.1211 C   0  0  0  0  0  0  0  0  0  0  0  0
    5.1679    2.3197   -0.0150 C   0  0  0  0  0  0  0  0  0  0  0  0
    4.4888    1.0905   -0.0509 C   0  0  0  0  0  0  0  0  0  0  0  0
    3.0852    1.0060    0.0679 C   0  0  0  0  0  0  0  0  0  0  0  0
    0.5061    0.4316   -0.2251 H   0  0  0  0  0  0  0  0  0  0  0  0
    1.7480   -2.0761    2.1325 H   0  0  0  0  0  0  0  0  0  0  0  0
    0.5422   -4.1343    2.7254 H   0  0  0  0  0  0  0  0  0  0  0  0
   -1.6542   -4.6361    1.6792 H   0  0  0  0  0  0  0  0  0  0  0  0
   -2.6401   -3.0382    0.0563 H   0  0  0  0  0  0  0  0  0  0  0  0
   -1.4145   -0.9949   -0.5843 H   0  0  0  0  0  0  0  0  0  0  0  0
    2.7126   -2.3548   -0.2401 H   0  0  0  0  0  0  0  0  0  0  0  0
    5.1364   -2.2498   -0.3937 H   0  0  0  0  0  0  0  0  0  0  0  0
    7.2284   -0.9421   -0.3766 H   0  0  0  0  0  0  0  0  0  0  0  0
    8.3799    1.2344   -0.3197 H   0  0  0  0  0  0  0  0  0  0  0  0
    7.0716    3.3307   -0.1033 H   0  0  0  0  0  0  0  0  0  0  0  0
    4.6149    3.2501    0.0923 H   0  0  0  0  0  0  0  0  0  0  0  0
    2.5074    1.9134    0.2289 H   0  0  0  0  0  0  0  0  0  0  0  0
  1  2  1  0  0  0  0
  1  8  1  0  0  0  0
  1 18  1  0  0  0  0
  2  3  2  0  0  0  0
  2  7  1  0  0  0  0
  3  4  1  0  0  0  0
  3 19  1  0  0  0  0
  4  5  2  0  0  0  0
  4 20  1  0  0  0  0
  5  6  1  0  0  0  0
  5 21  1  0  0  0  0
  6  7  2  0  0  0  0
  6 22  1  0  0  0  0
  7 23  1  0  0  0  0
  8  9  2  0  0  0  0
  8 17  1  0  0  0  0
  9 10  1  0  0  0  0
  9 24  1  0  0  0  0
 10 11  2  0  0  0  0
 10 25  1  0  0  0  0
 11 12  1  0  0  0  0
 11 16  1  0  0  0  0
 12 13  2  0  0  0  0
 12 26  1  0  0  0  0
 13 14  1  0  0  0  0
 13 27  1  0  0  0  0
 14 15  2  0  0  0  0
 14 28  1  0  0  0  0
 15 16  1  0  0  0  0
 15 29  1  0  0  0  0
 16 17  2  0  0  0  0
 17 30  1  0  0  0  0
M  END
$$$$

 OpenBabel12201709243D

  7  6  0  0  0  0  0  0  0  0999 V2000
    1.1870    0.0970   -0.0579 O   0  0  0  0  0  0  0  0  0  0  0  0
    2.7847    0.0701    0.1049 S   0  0  0  0  0  0  0  0  0  0  0  0
    3.3074    1.1501   -0.6919 O   0  0  0  0  0  0  0  0  0  0  0  0
    3.0478   -0.0662    1.5155 O   0  0  0  0  0  0  0  0  0  0  0  0
    3.1631   -1.2976   -0.6420 O   0  0  0  0  0  0  0  0  0  0  0  0
    0.8215    0.5153    0.7496 H   0  0  0  0  0  0  0  0  0  0  0  0
    2.9474   -1.1914   -1.5894 H   0  0  0  0  0  0  0  0  0  0  0  0
  1  2  1  0  0  0  0
  1  6  1  0  0  0  0
  2  3  2  0  0  0  0
  2  4  2  0  0  0  0
  2  5  1  0  0  0  0
  5  7  1  0  0  0  0
M  END
$$$$

 OpenBabel12201709243D

 29 30  0  0  0  0  0  0  0  0999 V2000
    1.1475    1.0479    1.0664 N   0  0  0  0  0  0  0  0  0  0  0  0
    2.4643    0.7439    0.6965 C   0  0  0  0  0  0  0  0  0  0  0  0
    3.4019    0.3767    1.6630 C   0  0  0  0  0  0  0  0  0  0  0  0
    4.7119    0.0494    1.2976 C   0  0  0  0  0  0  0  0  0  0  0  0
    5.0934    0.0351   -0.0507 C   0  0  0  0  0  0  0  0  0  0  0  0
    6.5458   -0.1129   -0.4406 C   0  0  0  0  0  0  0  0  0  0  0  0
    7.1058   -1.4916   -0.7049 C   0  0  0  0  0  0  0  0  0  0  0  0
    8.1872   -1.6093   -1.5966 C   0  0  0  0  0  0  0  0  0  0  0  0
    8.8494   -2.8271   -1.7749 C   0  0  0  0  0  0  0  0  0  0  0  0
    8.4333   -3.9682   -1.0930 C   0  0  0  0  0  0  0  0  0  0  0  0
    9.2039   -5.1364   -1.1457 N   0  0  0  0  0  0  0  0  0  0  0  0
    7.3908   -3.8470   -0.1716 C   0  0  0  0  0  0  0  0  0  0  0  0
    6.7195   -2.6291    0.0081 C   0  0  0  0  0  0  0  0  0  0  0  0
    4.1111    0.2610   -1.0234 C   0  0  0  0  0  0  0  0  0  0  0  0
    2.8058    0.6001   -0.6491 C   0  0  0  0  0  0  0  0  0  0  0  0
    1.0766    1.4378    2.0017 H   0  0  0  0  0  0  0  0  0  0  0  0
    0.6696    1.6280    0.3829 H   0  0  0  0  0  0  0  0  0  0  0  0
    3.1323    0.3799    2.7155 H   0  0  0  0  0  0  0  0  0  0  0  0
    5.4400   -0.1655    2.0765 H   0  0  0  0  0  0  0  0  0  0  0  0
    7.1642    0.3502    0.3421 H   0  0  0  0  0  0  0  0  0  0  0  0
    6.7026    0.5096   -1.3326 H   0  0  0  0  0  0  0  0  0  0  0  0
    8.5509   -0.7330   -2.1321 H   0  0  0  0  0  0  0  0  0  0  0  0
    9.7111   -2.8658   -2.4363 H   0  0  0  0  0  0  0  0  0  0  0  0
    9.6973   -5.2601   -2.0242 H   0  0  0  0  0  0  0  0  0  0  0  0
    8.7019   -5.9715   -0.8629 H   0  0  0  0  0  0  0  0  0  0  0  0
    7.0986   -4.7013    0.4330 H   0  0  0  0  0  0  0  0  0  0  0  0
    5.9172   -2.5821    0.7402 H   0  0  0  0  0  0  0  0  0  0  0  0
    4.3623    0.2107   -2.0804 H   0  0  0  0  0  0  0  0  0  0  0  0
    2.0651    0.7836   -1.4229 H   0  0  0  0  0  0  0  0  0  0  0  0
  1  2  1  0  0  0  0
  1 16  1  0  0  0  0
  1 17  1  0  0  0  0
  2  3  2  0  0  0  0
  2 15  1  0  0  0  0
  3  4  1  0  0  0  0
  3 18  1  0  0  0  0
  4  5  2  0  0  0  0
  4 19  1  0  0  0  0
  5  6  1  0  0  0  0
  5 14  1  0  0  0  0
  6  7  1  0  0  0  0
  6 20  1  0  0  0  0
  6 21  1  0  0  0  0
  7  8  2  0  0  0  0
  7 13  1  0  0  0  0
  8  9  1  0  0  0  0
  8 22  1  0  0  0  0
  9 10  2  0  0  0  0
  9 23  1  0  0  0  0
 10 11  1  0  0  0  0
 10 12  1  0  0  0  0
 11 24  1  0  0  0  0
 11 25  1  0  0  0  0
 12 13  2  0  0  0  0
 12 26  1  0  0  0  0
 13 27  1  0  0  0  0
 14 15  2  0  0  0  0
 14 28  1  0  0  0  0
 15 29  1  0  0  0  0
M  END
$$$$

 OpenBabel12201709243D

 27 28  0  0  0  0  0  0  0  0999 V2000
    1.2724   -0.0160   -0.2378 N   0  0  0  0  0  0  0  0  0  0  0  0
    2.6458   -0.0197   -0.0054 C   0  0  0  0  0  0  0  0  0  0  0  0
    3.3439    1.1735    0.0892 C   0  0  0  0  0  0  0  0  0  0  0  0
    4.7197    1.1273    0.3004 C   0  0  0  0  0  0  0  0  0  0  0  0
    5.3754   -0.1017    0.4011 C   0  0  0  0  0  0  0  0  0  0  0  0
    6.7733   -0.0810    0.6184 N   0  0  0  0  0  0  0  0  0  0  0  0
    7.3678   -0.9613   -0.0373 N   0  0  0  0  0  0  0  0  0  0  0  0
    8.7730   -0.8484    0.0190 C   0  0  0  0  0  0  0  0  0  0  0  0
    9.4855   -0.2046    1.0422 C   0  0  0  0  0  0  0  0  0  0  0  0
   10.8791   -0.0953    0.9838 C   0  0  0  0  0  0  0  0  0  0  0  0
   11.5782   -0.6437   -0.0899 C   0  0  0  0  0  0  0  0  0  0  0  0
   10.8893   -1.3175   -1.0941 C   0  0  0  0  0  0  0  0  0  0  0  0
    9.4980   -1.4220   -1.0332 C   0  0  0  0  0  0  0  0  0  0  0  0
    4.5759   -1.2565    0.2824 C   0  0  0  0  0  0  0  0  0  0  0  0
    5.1020   -2.5425    0.4437 N   0  0  0  0  0  0  0  0  0  0  0  0
    3.2364   -1.2204    0.0822 N   0  0  0  0  0  0  0  0  0  0  0  0
    0.7793    0.5437    0.4477 H   0  0  0  0  0  0  0  0  0  0  0  0
    0.9679   -0.9866   -0.2188 H   0  0  0  0  0  0  0  0  0  0  0  0
    2.8331    2.1241   -0.0089 H   0  0  0  0  0  0  0  0  0  0  0  0
    5.2864    2.0510    0.3761 H   0  0  0  0  0  0  0  0  0  0  0  0
    8.9584    0.2254    1.8901 H   0  0  0  0  0  0  0  0  0  0  0  0
   11.4165    0.4238    1.7735 H   0  0  0  0  0  0  0  0  0  0  0  0
   12.6598   -0.5473   -0.1432 H   0  0  0  0  0  0  0  0  0  0  0  0
   11.4292   -1.7546   -1.9299 H   0  0  0  0  0  0  0  0  0  0  0  0
    8.9660   -1.9444   -1.8245 H   0  0  0  0  0  0  0  0  0  0  0  0
    5.9628   -2.6405   -0.0865 H   0  0  0  0  0  0  0  0  0  0  0  0
    4.3811   -3.2082    0.1853 H   0  0  0  0  0  0  0  0  0  0  0  0
  1  2  1  0  0  0  0
  1 17  1  0  0  0  0
  1 18  1  0  0  0  0
  2  3  2  0  0  0  0
  2 16  1  0  0  0  0
  3  4  1  0  0  0  0
  3 19  1  0  0  0  0
  4  5  2  0  0  0  0
  4 20  1  0  0  0  0
  5  6  1  0  0  0  0
  5 14  1  0  0  0  0
  6  7  2  3  0  0  0
  7  8  1  0  0  0  0
  8  9  2  0  0  0  0
  8 13  1  0  0  0  0
  9 10  1  0  0  0  0
  9 21  1  0  0  0  0
 10 11  2  0  0  0  0
 10 22  1  0  0  0  0
 11 12  1  0  0  0  0
 11 23  1  0  0  0  0
 12 13  2  0  0  0  0
 12 24  1  0  0  0  0
 13 25  1  0  0  0  0
 14 15  1  0  0  0  0
 14 16  2  0  0  0  0
 15 26  1  0  0  0  0
 15 27  1  0  0  0  0
M  END
$$$$

 OpenBabel12201709243D

 32 32  0  0  0  0  0  0  0  0999 V2000
    0.9978   -0.1241   -0.0743 C   0  0  0  0  0  0  0  0  0  0  0  0
    2.5179   -0.0763   -0.0776 C   0  0  0  0  0  0  0  0  0  0  0  0
    3.0483    0.7694    1.0795 C   0  0  0  0  0  0  0  0  0  0  0  0
    4.5771    0.8230    1.0864 C   0  0  0  0  0  0  0  0  0  0  0  0
    5.0906    1.6700    2.2525 C   0  0  0  0  0  0  0  0  0  0  0  0
    6.6191    1.7375    2.2679 C   0  0  0  0  0  0  0  0  0  0  0  0
    7.1261    2.5825    3.4128 C   0  0  0  0  0  0  0  0  0  0  0  0
    7.2988    3.9645    3.2338 C   0  0  0  0  0  0  0  0  0  0  0  0
    7.7512    4.7695    4.2816 C   0  0  0  0  0  0  0  0  0  0  0  0
    8.0264    4.1916    5.5161 C   0  0  0  0  0  0  0  0  0  0  0  0
    8.4749    4.9391    6.5655 O   0  0  0  0  0  0  0  0  0  0  0  0
    7.8522    2.8280    5.7221 C   0  0  0  0  0  0  0  0  0  0  0  0
    7.4020    2.0315    4.6700 C   0  0  0  0  0  0  0  0  0  0  0  0
    7.2227    0.6892    4.8576 O   0  0  0  0  0  0  0  0  0  0  0  0
    0.6347   -0.7346   -0.9069 H   0  0  0  0  0  0  0  0  0  0  0  0
    0.5738    0.8797   -0.1786 H   0  0  0  0  0  0  0  0  0  0  0  0
    0.6213   -0.5606    0.8565 H   0  0  0  0  0  0  0  0  0  0  0  0
    2.8633    0.3376   -1.0320 H   0  0  0  0  0  0  0  0  0  0  0  0
    2.9104   -1.0972   -0.0047 H   0  0  0  0  0  0  0  0  0  0  0  0
    2.6924    0.3532    2.0300 H   0  0  0  0  0  0  0  0  0  0  0  0
    2.6466    1.7872    1.0028 H   0  0  0  0  0  0  0  0  0  0  0  0
    4.9349    1.2440    0.1390 H   0  0  0  0  0  0  0  0  0  0  0  0
    4.9817   -0.1936    1.1628 H   0  0  0  0  0  0  0  0  0  0  0  0
    4.7266    1.2493    3.1985 H   0  0  0  0  0  0  0  0  0  0  0  0
    4.6749    2.6830    2.1780 H   0  0  0  0  0  0  0  0  0  0  0  0
    6.9851    2.1563    1.3214 H   0  0  0  0  0  0  0  0  0  0  0  0
    7.0460    0.7290    2.3270 H   0  0  0  0  0  0  0  0  0  0  0  0
    7.0782    4.4205    2.2706 H   0  0  0  0  0  0  0  0  0  0  0  0
    7.8777    5.8346    4.1158 H   0  0  0  0  0  0  0  0  0  0  0  0
    8.5779    5.8582    6.2680 H   0  0  0  0  0  0  0  0  0  0  0  0
    8.0688    2.4088    6.6988 H   0  0  0  0  0  0  0  0  0  0  0  0
    7.4850    0.4676    5.7659 H   0  0  0  0  0  0  0  0  0  0  0  0
  1  2  1  0  0  0  0
  1 15  1  0  0  0  0
  1 16  1  0  0  0  0
  1 17  1  0  0  0  0
  2  3  1  0  0  0  0
  2 18  1  0  0  0  0
  2 19  1  0  0  0  0
  3  4  1  0  0  0  0
  3 20  1  0  0  0  0
  3 21  1  0  0  0  0
  4  5  1  0  0  0  0
  4 22  1  0  0  0  0
  4 23  1  0  0  0  0
  5  6  1  0  0  0  0
  5 24  1  0  0  0  0
  5 25  1  0  0  0  0
  6  7  1  0  0  0  0
  6 26  1  0  0  0  0
  6 27  1  0  0  0  0
  7  8  2  0  0  0  0
  7 13  1  0  0  0  0
  8  9  1  0  0  0  0
  8 28  1  0  0  0  0
  9 10  2  0  0  0  0
  9 29  1  0  0  0  0
 10 11  1  0  0  0  0
 10 12  1  0  0  0  0
 11 30  1  0  0  0  0
 12 13  2  0  0  0  0
 12 31  1  0  0  0  0
 13 14  1  0  0  0  0
 14 32  1  0  0  0  0
M  END
$$$$

 OpenBabel12201709243D

 17 17  0  0  0  0  0  0  0  0999 V2000
    1.1679   -0.0726    0.2520 N   0  0  0  0  0  0  0  0  0  0  0  0
    2.5347   -0.1080   -0.0565 C   0  0  0  0  0  0  0  0  0  0  0  0
    3.2707    1.0800   -0.1069 C   0  0  0  0  0  0  0  0  0  0  0  0
    4.6570    1.0565   -0.2752 C   0  0  0  0  0  0  0  0  0  0  0  0
    5.3105   -0.1687   -0.3650 C   0  0  0  0  0  0  0  0  0  0  0  0
    6.6701   -0.2261   -0.5350 O   0  0  0  0  0  0  0  0  0  0  0  0
    4.6018   -1.3753   -0.2986 C   0  0  0  0  0  0  0  0  0  0  0  0
    5.2928   -2.5995   -0.2263 N   0  0  0  0  0  0  0  0  0  0  0  0
    3.2216   -1.3281   -0.0790 C   0  0  0  0  0  0  0  0  0  0  0  0
    0.6995    0.7721   -0.0601 H   0  0  0  0  0  0  0  0  0  0  0  0
    0.6678   -0.9128   -0.0220 H   0  0  0  0  0  0  0  0  0  0  0  0
    2.7672    2.0376   -0.0030 H   0  0  0  0  0  0  0  0  0  0  0  0
    5.2028    1.9928   -0.3166 H   0  0  0  0  0  0  0  0  0  0  0  0
    7.0208    0.6768   -0.4749 H   0  0  0  0  0  0  0  0  0  0  0  0
    6.2289   -2.4960   -0.6169 H   0  0  0  0  0  0  0  0  0  0  0  0
    4.7791   -3.3818   -0.6138 H   0  0  0  0  0  0  0  0  0  0  0  0
    2.6768   -2.2543    0.0783 H   0  0  0  0  0  0  0  0  0  0  0  0
  1  2  1  0  0  0  0
  1 10  1  0  0  0  0
  1 11  1  0  0  0  0
  2  3  2  0  0  0  0
  2  9  1  0  0  0  0
  3  4  1  0  0  0  0
  3 12  1  0  0  0  0
  4  5  2  0  0  0  0
  4 13  1  0  0  0  0
  5  6  1  0  0  0  0
  5  7  1  0  0  0  0
  6 14  1  0  0  0  0
  7  8  1  0  0  0  0
  7  9  2  0  0  0  0
  8 15  1  0  0  0  0
  8 16  1  0  0  0  0
  9 17  1  0  0  0  0
M  END
$$$$

 OpenBabel12201709243D

 23 23  0  0  0  0  0  0  0  0999 V2000
    1.0893    0.0214   -0.0216 C   0  0  0  0  0  0  0  0  0  0  0  0
    2.5878   -0.0023   -0.1483 C   0  0  0  0  0  0  0  0  0  0  0  0
    3.2921    1.2092   -0.2198 C   0  0  0  0  0  0  0  0  0  0  0  0
    4.6926    1.2413   -0.3436 C   0  0  0  0  0  0  0  0  0  0  0  0
    5.3893    2.5726   -0.4007 C   0  0  0  0  0  0  0  0  0  0  0  0
    5.4025    0.0353   -0.4375 C   0  0  0  0  0  0  0  0  0  0  0  0
    6.8072    0.0063   -0.4345 N   0  0  0  0  0  0  0  0  0  0  0  0
    4.7029   -1.1721   -0.3069 C   0  0  0  0  0  0  0  0  0  0  0  0
    3.3028   -1.2105   -0.1922 C   0  0  0  0  0  0  0  0  0  0  0  0
    2.6060   -2.5410   -0.1224 C   0  0  0  0  0  0  0  0  0  0  0  0
    0.7091    1.0449    0.0672 H   0  0  0  0  0  0  0  0  0  0  0  0
    0.7717   -0.5216    0.8737 H   0  0  0  0  0  0  0  0  0  0  0  0
    0.6283   -0.4293   -0.9061 H   0  0  0  0  0  0  0  0  0  0  0  0
    2.7426    2.1475   -0.1695 H   0  0  0  0  0  0  0  0  0  0  0  0
    4.6904    3.4018   -0.2479 H   0  0  0  0  0  0  0  0  0  0  0  0
    5.8566    2.7095   -1.3816 H   0  0  0  0  0  0  0  0  0  0  0  0
    6.1529    2.6411    0.3808 H   0  0  0  0  0  0  0  0  0  0  0  0
    7.2331    0.8241   -0.8559 H   0  0  0  0  0  0  0  0  0  0  0  0
    7.1933   -0.8561   -0.8044 H   0  0  0  0  0  0  0  0  0  0  0  0
    5.2604   -2.1060   -0.3034 H   0  0  0  0  0  0  0  0  0  0  0  0
    3.3193   -3.3714   -0.1444 H   0  0  0  0  0  0  0  0  0  0  0  0
    1.9354   -2.6599   -0.9798 H   0  0  0  0  0  0  0  0  0  0  0  0
    2.0319   -2.6258    0.8055 H   0  0  0  0  0  0  0  0  0  0  0  0
  1  2  1  0  0  0  0
  1 11  1  0  0  0  0
  1 12  1  0  0  0  0
  1 13  1  0  0  0  0
  2  3  2  0  0  0  0
  2  9  1  0  0  0  0
  3  4  1  0  0  0  0
  3 14  1  0  0  0  0
  4  5  1  0  0  0  0
  4  6  2  0  0  0  0
  5 15  1  0  0  0  0
  5 16  1  0  0  0  0
  5 17  1  0  0  0  0
  6  7  1  0  0  0  0
  6  8  1  0  0  0  0
  7 18  1  0  0  0  0
  7 19  1  0  0  0  0
  8  9  2  0  0  0  0
  8 20  1  0  0  0  0
  9 10  1  0  0  0  0
 10 21  1  0  0  0  0
 10 22  1  0  0  0  0
 10 23  1  0  0  0  0
M  END
$$$$

 OpenBabel12201709243D

 25 24  0  0  0  0  0  0  0  0999 V2000
    0.0000    0.0000    0.0000 C   0  0  0  0  0  0  0  0  0  0  0  0
    0.0000    0.0000    0.0000 N   0  0  0  0  0  0  0  0  0  0  0  0
    0.0000    0.0000    0.0000 C   0  0  0  0  0  0  0  0  0  0  0  0
    0.0000    0.0000    0.0000 C   0  0  0  0  0  0  0  0  0  0  0  0
    0.0000    0.0000    0.0000 S   0  0  0  0  0  0  0  0  0  0  0  0
    0.0000    0.0000    0.0000 S   0  0  0  0  0  0  0  0  0  0  0  0
    0.0000    0.0000    0.0000 Zn  0  0  0  0  0  0  0  0  0  0  0  0
    0.0000    0.0000    0.0000 S   0  0  0  0  0  0  0  0  0  0  0  0
    0.0000    0.0000    0.0000 C   0  0  0  0  0  0  0  0  0  0  0  0
    0.0000    0.0000    0.0000 S   0  0  0  0  0  0  0  0  0  0  0  0
    0.0000    0.0000    0.0000 N   0  0  0  0  0  0  0  0  0  0  0  0
    0.0000    0.0000    0.0000 C   0  0  0  0  0  0  0  0  0  0  0  0
    0.0000    0.0000    0.0000 C   0  0  0  0  0  0  0  0  0  0  0  0
    0.0000    0.0000    0.0000 H   0  0  0  0  0  0  0  0  0  0  0  0
    0.0000    0.0000    0.0000 H   0  0  0  0  0  0  0  0  0  0  0  0
    0.0000    0.0000    0.0000 H   0  0  0  0  0  0  0  0  0  0  0  0
    0.0000    0.0000    0.0000 H   0  0  0  0  0  0  0  0  0  0  0  0
    0.0000    0.0000    0.0000 H   0  0  0  0  0  0  0  0  0  0  0  0
    0.0000    0.0000    0.0000 H   0  0  0  0  0  0  0  0  0  0  0  0
    0.0000    0.0000    0.0000 H   0  0  0  0  0  0  0  0  0  0  0  0
    0.0000    0.0000    0.0000 H   0  0  0  0  0  0  0  0  0  0  0  0
    0.0000    0.0000    0.0000 H   0  0  0  0  0  0  0  0  0  0  0  0
    0.0000    0.0000    0.0000 H   0  0  0  0  0  0  0  0  0  0  0  0
    0.0000    0.0000    0.0000 H   0  0  0  0  0  0  0  0  0  0  0  0
    0.0000    0.0000    0.0000 H   0  0  0  0  0  0  0  0  0  0  0  0
  1  2  1  0  0  0  0
  1 14  1  0  0  0  0
  1 15  1  0  0  0  0
  1 16  1  0  0  0  0
  2  3  1  0  0  0  0
  2  4  1  0  0  0  0
  3 17  1  0  0  0  0
  3 18  1  0  0  0  0
  3 19  1  0  0  0  0
  4  5  2  0  0  0  0
  4  6  1  0  0  0  0
  6  7  1  0  0  0  0
  7  8  1  0  0  0  0
  8  9  1  0  0  0  0
  9 10  2  0  0  0  0
  9 11  1  0  0  0  0
 11 12  1  0  0  0  0
 11 13  1  0  0  0  0
 12 20  1  0  0  0  0
 12 21  1  0  0  0  0
 12 22  1  0  0  0  0
 13 23  1  0  0  0  0
 13 24  1  0  0  0  0
 13 25  1  0  0  0  0
M  END
$$$$

 OpenBabel12201709243D

 16 15  0  0  0  0  0  0  0  0999 V2000
    3.2259   -1.1590   -0.2951 N   0  0  0  0  0  0  0  0  0  0  0  0
    2.4400   -0.0877    0.0187 C   0  0  0  0  0  0  0  0  0  0  0  0
    1.2242   -0.2723    0.0598 O   0  0  0  0  0  0  0  0  0  0  0  0
    3.0794    1.1231    0.2489 N   0  0  0  0  0  0  0  0  0  0  0  0
    2.3813    2.3737    0.6005 C   0  0  0  0  0  0  0  0  0  0  0  0
    0.8536    2.3694    0.6866 C   0  0  0  0  0  0  0  0  0  0  0  0
    0.3887    1.5471    1.7518 O   0  0  0  0  0  0  0  0  0  0  0  0
    4.4861    1.1621    0.1424 N   0  0  0  0  0  0  0  0  0  0  0  0
    4.9854    2.2653    0.3860 O   0  0  0  0  0  0  0  0  0  0  0  0
    2.7309   -2.0391   -0.3625 H   0  0  0  0  0  0  0  0  0  0  0  0
    4.1604   -1.2168    0.0859 H   0  0  0  0  0  0  0  0  0  0  0  0
    2.6668    3.1202   -0.1514 H   0  0  0  0  0  0  0  0  0  0  0  0
    2.7771    2.6909    1.5733 H   0  0  0  0  0  0  0  0  0  0  0  0
    0.3825    2.0609   -0.2523 H   0  0  0  0  0  0  0  0  0  0  0  0
    0.5100    3.3869    0.9014 H   0  0  0  0  0  0  0  0  0  0  0  0
    0.3705    0.6361    1.3853 H   0  0  0  0  0  0  0  0  0  0  0  0
  1  2  1  0  0  0  0
  1 10  1  0  0  0  0
  1 11  1  0  0  0  0
  2  3  2  0  0  0  0
  2  4  1  0  0  0  0
  4  5  1  0  0  0  0
  4  8  1  0  0  0  0
  5  6  1  0  0  0  0
  5 12  1  0  0  0  0
  5 13  1  0  0  0  0
  6  7  1  0  0  0  0
  6 14  1  0  0  0  0
  6 15  1  0  0  0  0
  7 16  1  0  0  0  0
  8  9  2  0  0  0  0
M  END
$$$$

 OpenBabel12201709243D

 12 11  0  0  1  0  0  0  0  0999 V2000
    1.1076   -0.1411    0.0367 F   0  0  0  0  0  0  0  0  0  0  0  0
    2.4613   -0.1538    0.1145 C   0  0  0  0  0  0  0  0  0  0  0  0
    2.7688   -0.6167    1.3473 F   0  0  0  0  0  0  0  0  0  0  0  0
    2.9097   -1.0854   -0.8345 O   0  0  0  0  0  0  0  0  0  0  0  0
    4.3116   -0.9775   -0.9747 C   0  0  0  0  0  0  0  0  0  0  0  0
    4.6113    0.3075   -1.2894 F   0  0  0  0  0  0  0  0  0  0  0  0
    4.8804   -1.2400    0.2277 F   0  0  0  0  0  0  0  0  0  0  0  0
    4.8404   -1.9473   -2.0393 C   0  0  3  0  0  0  0  0  0  0  0  0
    4.3028   -1.6506   -3.2572 F   0  0  0  0  0  0  0  0  0  0  0  0
    6.6167   -1.8945   -2.1818 Cl  0  0  0  0  0  0  0  0  0  0  0  0
    2.8320    0.8661   -0.0253 H   0  0  0  0  0  0  0  0  0  0  0  0
    4.5562   -2.9755   -1.7959 H   0  0  0  0  0  0  0  0  0  0  0  0
  1  2  1  0  0  0  0
  2  3  1  0  0  0  0
  2  4  1  0  0  0  0
  2 11  1  0  0  0  0
  4  5  1  0  0  0  0
  5  6  1  0  0  0  0
  5  7  1  0  0  0  0
  5  8  1  0  0  0  0
  8  9  1  0  0  0  0
  8 10  1  0  0  0  0
  8 12  1  0  0  0  0
M  END
$$$$

 OpenBabel12201709243D

 22 21  0  0  0  0  0  0  0  0999 V2000
    2.7898   -1.1580   -0.0858 O   0  0  0  0  0  0  0  0  0  0  0  0
    2.2139    0.0472    0.1437 C   0  0  0  0  0  0  0  0  0  0  0  0
    1.0804    0.3262   -0.2186 O   0  0  0  0  0  0  0  0  0  0  0  0
    3.1192    0.9849    0.9366 C   0  0  0  0  0  0  0  0  0  0  0  0
    4.5663    0.7569    0.6397 N   0  0  0  0  0  0  0  0  0  0  0  0
    4.9141    1.0292   -0.7911 C   0  0  0  0  0  0  0  0  0  0  0  0
    4.7132    2.4630   -1.2834 C   0  0  0  0  0  0  0  0  0  0  0  0
    4.4041    3.4188   -0.5881 O   0  0  0  0  0  0  0  0  0  0  0  0
    4.9534    2.5942   -2.6100 O   0  0  0  0  0  0  0  0  0  0  0  0
    5.3644    1.5896    1.5913 C   0  0  0  0  0  0  0  0  0  0  0  0
    6.8767    1.4762    1.3898 C   0  0  0  0  0  0  0  0  0  0  0  0
    7.4629    0.4643    1.0348 O   0  0  0  0  0  0  0  0  0  0  0  0
    7.5420    2.6273    1.6606 O   0  0  0  0  0  0  0  0  0  0  0  0
    3.6995   -1.1521    0.2907 H   0  0  0  0  0  0  0  0  0  0  0  0
    2.9310    0.7523    1.9925 H   0  0  0  0  0  0  0  0  0  0  0  0
    2.8172    2.0195    0.7535 H   0  0  0  0  0  0  0  0  0  0  0  0
    4.3265    0.3700   -1.4389 H   0  0  0  0  0  0  0  0  0  0  0  0
    5.9616    0.7647   -0.9689 H   0  0  0  0  0  0  0  0  0  0  0  0
    5.2136    1.7693   -3.0657 H   0  0  0  0  0  0  0  0  0  0  0  0
    5.1726    1.2508    2.6164 H   0  0  0  0  0  0  0  0  0  0  0  0
    5.0676    2.6409    1.5376 H   0  0  0  0  0  0  0  0  0  0  0  0
    6.9759    3.3879    1.8992 H   0  0  0  0  0  0  0  0  0  0  0  0
  1  2  1  0  0  0  0
  1 14  1  0  0  0  0
  2  3  2  0  0  0  0
  2  4  1  0  0  0  0
  4  5  1  0  0  0  0
  4 15  1  0  0  0  0
  4 16  1  0  0  0  0
  5  6  1  0  0  0  0
  5 10  1  0  0  0  0
  6  7  1  0  0  0  0
  6 17  1  0  0  0  0
  6 18  1  0  0  0  0
  7  8  2  0  0  0  0
  7  9  1  0  0  0  0
  9 19  1  0  0  0  0
 10 11  1  0  0  0  0
 10 20  1  0  0  0  0
 10 21  1  0  0  0  0
 11 12  2  0  0  0  0
 11 13  1  0  0  0  0
 13 22  1  0  0  0  0
M  END
$$$$

 OpenBabel12201709243D

 27 28  0  0  0  0  0  0  0  0999 V2000
    1.0148    0.1197    0.6087 N   0  0  0  0  0  0  0  0  0  0  0  0
    2.3959    0.0731    0.3902 C   0  0  0  0  0  0  0  0  0  0  0  0
    3.2666   -0.2661    1.4290 C   0  0  0  0  0  0  0  0  0  0  0  0
    4.6417   -0.3783    1.2019 C   0  0  0  0  0  0  0  0  0  0  0  0
    5.1649   -0.2161   -0.0839 C   0  0  0  0  0  0  0  0  0  0  0  0
    6.9210   -0.1054   -0.3338 S   0  0  0  0  0  0  0  0  0  0  0  0
    7.4995   -1.7471   -0.7049 C   0  0  0  0  0  0  0  0  0  0  0  0
    8.6574   -1.8504   -1.4897 C   0  0  0  0  0  0  0  0  0  0  0  0
    9.2602   -3.0890   -1.7349 C   0  0  0  0  0  0  0  0  0  0  0  0
    8.7008   -4.2616   -1.2325 C   0  0  0  0  0  0  0  0  0  0  0  0
    9.3952   -5.4718   -1.3385 N   0  0  0  0  0  0  0  0  0  0  0  0
    7.5732   -4.1587   -0.4137 C   0  0  0  0  0  0  0  0  0  0  0  0
    6.9615   -2.9161   -0.1680 C   0  0  0  0  0  0  0  0  0  0  0  0
    4.2858    0.0314   -1.1407 C   0  0  0  0  0  0  0  0  0  0  0  0
    2.9098    0.1536   -0.9060 C   0  0  0  0  0  0  0  0  0  0  0  0
    0.7608    0.3671    1.5609 H   0  0  0  0  0  0  0  0  0  0  0  0
    0.5155    0.6849   -0.0723 H   0  0  0  0  0  0  0  0  0  0  0  0
    2.8821   -0.4087    2.4364 H   0  0  0  0  0  0  0  0  0  0  0  0
    5.3031   -0.5685    2.0452 H   0  0  0  0  0  0  0  0  0  0  0  0
    9.1292   -0.9545   -1.8904 H   0  0  0  0  0  0  0  0  0  0  0  0
   10.1837   -3.1207   -2.3072 H   0  0  0  0  0  0  0  0  0  0  0  0
    9.9872   -5.5369   -2.1606 H   0  0  0  0  0  0  0  0  0  0  0  0
    8.8162   -6.2955   -1.2138 H   0  0  0  0  0  0  0  0  0  0  0  0
    7.1647   -5.0480    0.0603 H   0  0  0  0  0  0  0  0  0  0  0  0
    6.0933   -2.8887    0.4818 H   0  0  0  0  0  0  0  0  0  0  0  0
    4.6621    0.1629   -2.1524 H   0  0  0  0  0  0  0  0  0  0  0  0
    2.2461    0.3459   -1.7450 H   0  0  0  0  0  0  0  0  0  0  0  0
  1  2  1  0  0  0  0
  1 16  1  0  0  0  0
  1 17  1  0  0  0  0
  2  3  2  0  0  0  0
  2 15  1  0  0  0  0
  3  4  1  0  0  0  0
  3 18  1  0  0  0  0
  4  5  2  0  0  0  0
  4 19  1  0  0  0  0
  5  6  1  0  0  0  0
  5 14  1  0  0  0  0
  6  7  1  0  0  0  0
  7  8  2  0  0  0  0
  7 13  1  0  0  0  0
  8  9  1  0  0  0  0
  8 20  1  0  0  0  0
  9 10  2  0  0  0  0
  9 21  1  0  0  0  0
 10 11  1  0  0  0  0
 10 12  1  0  0  0  0
 11 22  1  0  0  0  0
 11 23  1  0  0  0  0
 12 13  2  0  0  0  0
 12 24  1  0  0  0  0
 13 25  1  0  0  0  0
 14 15  2  0  0  0  0
 14 26  1  0  0  0  0
 15 27  1  0  0  0  0
M  END
$$$$

 OpenBabel12201709243D

 23 23  0  0  0  0  0  0  0  0999 V2000
    0.9033    0.3084   -0.3790 C   0  0  0  0  0  0  0  0  0  0  0  0
    2.4112    0.2258   -0.3011 C   0  0  0  0  0  0  0  0  0  0  0  0
    3.0186    1.3859    0.3255 N   0  0  0  0  0  0  0  0  0  0  0  0
    4.3985    1.3811    0.4262 C   0  0  0  0  0  0  0  0  0  0  0  0
    5.0666    0.4881   -0.0847 O   0  0  0  0  0  0  0  0  0  0  0  0
    4.8790    2.4682    1.1131 N   0  0  0  0  0  0  0  0  0  0  0  0
    6.2181    2.6679    1.3597 C   0  0  0  0  0  0  0  0  0  0  0  0
    6.7372    3.8525    1.5876 N   0  0  0  0  0  0  0  0  0  0  0  0
    8.1184    3.7338    1.6895 C   0  0  0  0  0  0  0  0  0  0  0  0
    8.6070    2.4473    1.5934 C   0  0  0  0  0  0  0  0  0  0  0  0
    7.3066    1.3555    1.4667 S   0  0  0  0  0  0  0  0  0  0  0  0
    9.9569    2.0691    1.5984 N   0  0  0  0  0  0  0  0  0  0  0  0
   10.8104    2.9249    1.7063 O   0  0  0  0  0  0  0  0  0  0  0  0
   10.3260    0.7401    1.4582 O   0  0  0  0  0  0  0  0  0  0  0  0
    0.5116   -0.5643   -0.9121 H   0  0  0  0  0  0  0  0  0  0  0  0
    0.5809    1.2101   -0.9077 H   0  0  0  0  0  0  0  0  0  0  0  0
    0.4621    0.3217    0.6221 H   0  0  0  0  0  0  0  0  0  0  0  0
    2.8320    0.1282   -1.3091 H   0  0  0  0  0  0  0  0  0  0  0  0
    2.7085   -0.6624    0.2691 H   0  0  0  0  0  0  0  0  0  0  0  0
    2.5219    1.8197    1.0916 H   0  0  0  0  0  0  0  0  0  0  0  0
    4.3317    3.3160    1.0970 H   0  0  0  0  0  0  0  0  0  0  0  0
    8.7235    4.6255    1.8140 H   0  0  0  0  0  0  0  0  0  0  0  0
    9.4669    0.3033    1.3482 H   0  0  0  0  0  0  0  0  0  0  0  0
  1  2  1  0  0  0  0
  1 15  1  0  0  0  0
  1 16  1  0  0  0  0
  1 17  1  0  0  0  0
  2  3  1  0  0  0  0
  2 18  1  0  0  0  0
  2 19  1  0  0  0  0
  3  4  1  0  0  0  0
  3 20  1  0  0  0  0
  4  5  2  0  0  0  0
  4  6  1  0  0  0  0
  6  7  1  0  0  0  0
  6 21  1  0  0  0  0
  7  8  2  0  0  0  0
  7 11  1  0  0  0  0
  8  9  1  0  0  0  0
  9 10  2  0  0  0  0
  9 22  1  0  0  0  0
 10 11  1  0  0  0  0
 10 12  1  0  0  0  0
 12 13  2  0  0  0  0
 12 14  1  0  0  0  0
 14 23  1  0  0  0  0
M  END
$$$$

 OpenBabel12201709243D

 21 21  0  0  0  0  0  0  0  0999 V2000
    1.1000   -0.9193   -1.4309 C   0  0  0  0  0  0  0  0  0  0  0  0
    2.5823   -0.8224   -1.6236 C   0  0  0  0  0  0  0  0  0  0  0  0
    3.1211   -0.5301   -2.6809 O   0  0  0  0  0  0  0  0  0  0  0  0
    3.2156   -1.0955   -0.4503 O   0  0  0  0  0  0  0  0  0  0  0  0
    4.6472   -1.1336   -0.5266 C   0  0  0  0  0  0  0  0  0  0  0  0
    5.0972   -2.4829   -1.0251 C   0  0  0  0  0  0  0  0  0  0  0  0
    5.8252   -2.5915   -2.2178 C   0  0  0  0  0  0  0  0  0  0  0  0
    6.1976   -3.8455   -2.7056 C   0  0  0  0  0  0  0  0  0  0  0  0
    5.8449   -4.9982   -2.0069 C   0  0  0  0  0  0  0  0  0  0  0  0
    5.1276   -4.9012   -0.8160 C   0  0  0  0  0  0  0  0  0  0  0  0
    4.7581   -3.6486   -0.3246 C   0  0  0  0  0  0  0  0  0  0  0  0
    0.5997   -0.7771   -2.3929 H   0  0  0  0  0  0  0  0  0  0  0  0
    0.7665   -0.1411   -0.7404 H   0  0  0  0  0  0  0  0  0  0  0  0
    0.8385   -1.9101   -1.0505 H   0  0  0  0  0  0  0  0  0  0  0  0
    5.0371   -0.9765    0.4856 H   0  0  0  0  0  0  0  0  0  0  0  0
    5.0323   -0.3087   -1.1387 H   0  0  0  0  0  0  0  0  0  0  0  0
    6.0855   -1.7014   -2.7866 H   0  0  0  0  0  0  0  0  0  0  0  0
    6.7502   -3.9203   -3.6374 H   0  0  0  0  0  0  0  0  0  0  0  0
    6.1222   -5.9745   -2.3965 H   0  0  0  0  0  0  0  0  0  0  0  0
    4.8461   -5.8010   -0.2760 H   0  0  0  0  0  0  0  0  0  0  0  0
    4.1856   -3.5850    0.5981 H   0  0  0  0  0  0  0  0  0  0  0  0
  1  2  1  0  0  0  0
  1 12  1  0  0  0  0
  1 13  1  0  0  0  0
  1 14  1  0  0  0  0
  2  3  2  0  0  0  0
  2  4  1  0  0  0  0
  4  5  1  0  0  0  0
  5  6  1  0  0  0  0
  5 15  1  0  0  0  0
  5 16  1  0  0  0  0
  6  7  2  0  0  0  0
  6 11  1  0  0  0  0
  7  8  1  0  0  0  0
  7 17  1  0  0  0  0
  8  9  2  0  0  0  0
  8 18  1  0  0  0  0
  9 10  1  0  0  0  0
  9 19  1  0  0  0  0
 10 11  2  0  0  0  0
 10 20  1  0  0  0  0
 11 21  1  0  0  0  0
M  END
$$$$

 OpenBabel12201709243D

 24 24  0  0  0  0  0  0  0  0999 V2000
    1.0529   -1.3670   -1.2153 C   0  0  0  0  0  0  0  0  0  0  0  0
    2.4908   -1.7757   -1.3977 C   0  0  0  0  0  0  0  0  0  0  0  0
    2.7693   -2.8907   -1.8233 O   0  0  0  0  0  0  0  0  0  0  0  0
    3.3797   -0.7860   -1.0090 N   0  0  0  0  0  0  0  0  0  0  0  0
    4.7871   -0.8801   -0.9894 C   0  0  0  0  0  0  0  0  0  0  0  0
    5.4941   -1.9818   -1.4710 C   0  0  0  0  0  0  0  0  0  0  0  0
    6.8860   -2.0437   -1.3626 C   0  0  0  0  0  0  0  0  0  0  0  0
    7.5936   -1.0039   -0.7573 C   0  0  0  0  0  0  0  0  0  0  0  0
    6.9027    0.1273   -0.3137 C   0  0  0  0  0  0  0  0  0  0  0  0
    5.5066    0.1889   -0.4362 C   0  0  0  0  0  0  0  0  0  0  0  0
    9.0655   -1.1662   -0.5914 C   0  0  0  0  0  0  0  0  0  0  0  0
    9.6864   -1.8670   -1.3904 O   0  0  0  0  0  0  0  0  0  0  0  0
    9.7366   -0.5256    0.5967 C   0  0  0  0  0  0  0  0  0  0  0  0
   10.3776    1.0583    0.1381 Cl  0  0  0  0  0  0  0  0  0  0  0  0
    0.4020   -2.1634   -1.5905 H   0  0  0  0  0  0  0  0  0  0  0  0
    0.8453   -0.4534   -1.7771 H   0  0  0  0  0  0  0  0  0  0  0  0
    0.8429   -1.2149   -0.1536 H   0  0  0  0  0  0  0  0  0  0  0  0
    2.9774    0.0695   -0.6447 H   0  0  0  0  0  0  0  0  0  0  0  0
    4.9943   -2.8241   -1.9393 H   0  0  0  0  0  0  0  0  0  0  0  0
    7.4068   -2.9223   -1.7381 H   0  0  0  0  0  0  0  0  0  0  0  0
    7.4231    0.9763    0.1210 H   0  0  0  0  0  0  0  0  0  0  0  0
    4.9942    1.0792   -0.0774 H   0  0  0  0  0  0  0  0  0  0  0  0
   10.5633   -1.1623    0.9271 H   0  0  0  0  0  0  0  0  0  0  0  0
    9.0463   -0.4164    1.4379 H   0  0  0  0  0  0  0  0  0  0  0  0
  1  2  1  0  0  0  0
  1 15  1  0  0  0  0
  1 16  1  0  0  0  0
  1 17  1  0  0  0  0
  2  3  2  0  0  0  0
  2  4  1  0  0  0  0
  4  5  1  0  0  0  0
  4 18  1  0  0  0  0
  5  6  2  0  0  0  0
  5 10  1  0  0  0  0
  6  7  1  0  0  0  0
  6 19  1  0  0  0  0
  7  8  2  0  0  0  0
  7 20  1  0  0  0  0
  8  9  1  0  0  0  0
  8 11  1  0  0  0  0
  9 10  2  0  0  0  0
  9 21  1  0  0  0  0
 10 22  1  0  0  0  0
 11 12  2  0  0  0  0
 11 13  1  0  0  0  0
 13 14  1  0  0  0  0
 13 23  1  0  0  0  0
 13 24  1  0  0  0  0
M  END
$$$$

 OpenBabel12201709243D

 26 26  0  0  0  0  0  0  0  0999 V2000
    1.3489    0.3926   -0.6849 C   0  0  0  0  0  0  0  0  0  0  0  0
    2.5058   -0.0186    0.1008 N   0  0  0  0  0  0  0  0  0  0  0  0
    2.9550   -1.4012    0.0176 C   0  0  0  0  0  0  0  0  0  0  0  0
    3.1987    0.9322    0.9381 C   0  0  0  0  0  0  0  0  0  0  0  0
    2.7849    2.2816    1.0022 C   0  0  0  0  0  0  0  0  0  0  0  0
    3.4602    3.2052    1.7993 C   0  0  0  0  0  0  0  0  0  0  0  0
    4.5708    2.8126    2.5616 C   0  0  0  0  0  0  0  0  0  0  0  0
    5.2785    3.7400    3.3710 N   0  0  0  0  0  0  0  0  0  0  0  0
    4.9564    4.9429    3.4096 N   0  0  0  0  0  0  0  0  0  0  0  0
    5.8370    6.0723    4.4116 S   0  0  0  0  0  0  0  0  0  0  0  0
    7.3003    6.0947    3.9456 O   0  0  0  0  0  0  0  0  0  0  0  0
    5.3070    7.4865    4.1329 O   0  0  0  0  0  0  0  0  0  0  0  0
    5.7511    5.7231    6.0890 O   0  0  0  0  0  0  0  0  0  0  0  0
    3.7550    5.7302    6.4891 Na  0  0  0  0  0  0  0  0  0  0  0  0
    4.9897    1.4791    2.5171 C   0  0  0  0  0  0  0  0  0  0  0  0
    4.3164    0.5497    1.7174 C   0  0  0  0  0  0  0  0  0  0  0  0
    0.9239   -0.4413   -1.2815 H   0  0  0  0  0  0  0  0  0  0  0  0
    1.6412    1.1944   -1.3957 H   0  0  0  0  0  0  0  0  0  0  0  0
    0.5475    0.7627   -0.0106 H   0  0  0  0  0  0  0  0  0  0  0  0
    2.3314   -2.0062   -0.6741 H   0  0  0  0  0  0  0  0  0  0  0  0
    2.9025   -1.8776    1.0188 H   0  0  0  0  0  0  0  0  0  0  0  0
    3.9985   -1.4346   -0.3617 H   0  0  0  0  0  0  0  0  0  0  0  0
    1.9394    2.6436    0.4358 H   0  0  0  0  0  0  0  0  0  0  0  0
    3.1128    4.2300    1.8151 H   0  0  0  0  0  0  0  0  0  0  0  0
    5.8442    1.1603    3.1014 H   0  0  0  0  0  0  0  0  0  0  0  0
    4.6846   -0.4664    1.7174 H   0  0  0  0  0  0  0  0  0  0  0  0
  1  2  1  0  0  0  0
  1 17  1  0  0  0  0
  1 18  1  0  0  0  0
  1 19  1  0  0  0  0
  2  3  1  0  0  0  0
  2  4  1  0  0  0  0
  3 20  1  0  0  0  0
  3 21  1  0  0  0  0
  3 22  1  0  0  0  0
  4  5  2  0  0  0  0
  4 16  1  0  0  0  0
  5  6  1  0  0  0  0
  5 23  1  0  0  0  0
  6  7  2  0  0  0  0
  6 24  1  0  0  0  0
  7  8  1  0  0  0  0
  7 15  1  0  0  0  0
  8  9  2  3  0  0  0
  9 10  1  0  0  0  0
 10 11  2  0  0  0  0
 10 12  2  0  0  0  0
 10 13  1  0  0  0  0
 13 14  1  0  0  0  0
 15 16  2  0  0  0  0
 15 25  1  0  0  0  0
 16 26  1  0  0  0  0
M  END
$$$$

 OpenBabel12201709243D

 23 23  0  0  0  0  0  0  0  0999 V2000
    1.3290    0.4655    0.7729 C   0  0  0  0  0  0  0  0  0  0  0  0
    2.5871    0.1669    0.1710 O   0  0  0  0  0  0  0  0  0  0  0  0
    3.0691    1.1478   -0.6539 C   0  0  0  0  0  0  0  0  0  0  0  0
    2.8390    2.5129   -0.4779 C   0  0  0  0  0  0  0  0  0  0  0  0
    3.3359    3.4315   -1.4063 C   0  0  0  0  0  0  0  0  0  0  0  0
    4.0683    2.9991   -2.5200 C   0  0  0  0  0  0  0  0  0  0  0  0
    4.5065    3.9922   -3.5702 C   0  0  0  0  0  0  0  0  0  0  0  0
    5.8014    4.6804   -3.2493 C   0  0  0  0  0  0  0  0  0  0  0  0
    5.9275    6.0043   -3.0823 C   0  0  0  0  0  0  0  0  0  0  0  0
    4.3568    1.6337   -2.6498 C   0  0  0  0  0  0  0  0  0  0  0  0
    3.8625    0.7160   -1.7181 C   0  0  0  0  0  0  0  0  0  0  0  0
    0.9462   -0.4523    1.2289 H   0  0  0  0  0  0  0  0  0  0  0  0
    0.5974    0.7977    0.0270 H   0  0  0  0  0  0  0  0  0  0  0  0
    1.4399    1.2084    1.5690 H   0  0  0  0  0  0  0  0  0  0  0  0
    2.2797    2.8887    0.3702 H   0  0  0  0  0  0  0  0  0  0  0  0
    3.1346    4.4914   -1.2630 H   0  0  0  0  0  0  0  0  0  0  0  0
    3.7009    4.7242   -3.7132 H   0  0  0  0  0  0  0  0  0  0  0  0
    4.6087    3.4809   -4.5352 H   0  0  0  0  0  0  0  0  0  0  0  0
    6.6882    4.0536   -3.1856 H   0  0  0  0  0  0  0  0  0  0  0  0
    5.0742    6.6720   -3.1456 H   0  0  0  0  0  0  0  0  0  0  0  0
    6.8969    6.4497   -2.8781 H   0  0  0  0  0  0  0  0  0  0  0  0
    4.9473    1.2716   -3.4883 H   0  0  0  0  0  0  0  0  0  0  0  0
    4.0709   -0.3446   -1.8391 H   0  0  0  0  0  0  0  0  0  0  0  0
  1  2  1  0  0  0  0
  1 12  1  0  0  0  0
  1 13  1  0  0  0  0
  1 14  1  0  0  0  0
  2  3  1  0  0  0  0
  3  4  2  0  0  0  0
  3 11  1  0  0  0  0
  4  5  1  0  0  0  0
  4 15  1  0  0  0  0
  5  6  2  0  0  0  0
  5 16  1  0  0  0  0
  6  7  1  0  0  0  0
  6 10  1  0  0  0  0
  7  8  1  0  0  0  0
  7 17  1  0  0  0  0
  7 18  1  0  0  0  0
  8  9  2  0  0  0  0
  8 19  1  0  0  0  0
  9 20  1  0  0  0  0
  9 21  1  0  0  0  0
 10 11  2  0  0  0  0
 10 22  1  0  0  0  0
 11 23  1  0  0  0  0
M  END
$$$$

 OpenBabel12201709243D

 18 18  0  0  0  0  0  0  0  0999 V2000
    2.3119    0.7564   -0.2137 O   0  0  0  0  0  0  0  0  0  0  0  0
    2.5523   -0.4267    0.0472 N   0  0  0  0  0  0  0  0  0  0  0  0
    2.7005   -0.5915    1.3423 N   0  0  0  0  0  0  0  0  0  0  0  0
    2.4700   -1.9806    1.7766 C   0  0  0  0  0  0  0  0  0  0  0  0
    3.6612   -2.9256    1.5196 C   0  0  0  0  0  0  0  0  0  0  0  0
    4.9308   -2.4458    2.0936 N   0  0  0  0  0  0  0  0  0  0  0  0
    5.1768   -1.0593    1.6421 C   0  0  0  0  0  0  0  0  0  0  0  0
    3.9886   -0.1033    1.8818 C   0  0  0  0  0  0  0  0  0  0  0  0
    5.0010   -2.6232    3.3946 N   0  0  0  0  0  0  0  0  0  0  0  0
    6.1721   -2.5702    3.7819 O   0  0  0  0  0  0  0  0  0  0  0  0
    1.5706   -2.3921    1.2970 H   0  0  0  0  0  0  0  0  0  0  0  0
    2.2424   -1.9692    2.8509 H   0  0  0  0  0  0  0  0  0  0  0  0
    3.7986   -3.0510    0.4372 H   0  0  0  0  0  0  0  0  0  0  0  0
    3.4195   -3.9299    1.8966 H   0  0  0  0  0  0  0  0  0  0  0  0
    5.4044   -1.0874    0.5682 H   0  0  0  0  0  0  0  0  0  0  0  0
    6.0778   -0.6425    2.1136 H   0  0  0  0  0  0  0  0  0  0  0  0
    4.2371    0.8871    1.4766 H   0  0  0  0  0  0  0  0  0  0  0  0
    3.8657    0.0526    2.9615 H   0  0  0  0  0  0  0  0  0  0  0  0
  1  2  2  0  0  0  0
  2  3  1  0  0  0  0
  3  4  1  0  0  0  0
  3  8  1  0  0  0  0
  4  5  1  0  0  0  0
  4 11  1  0  0  0  0
  4 12  1  0  0  0  0
  5  6  1  0  0  0  0
  5 13  1  0  0  0  0
  5 14  1  0  0  0  0
  6  7  1  0  0  0  0
  6  9  1  0  0  0  0
  7  8  1  0  0  0  0
  7 15  1  0  0  0  0
  7 16  1  0  0  0  0
  8 17  1  0  0  0  0
  8 18  1  0  0  0  0
  9 10  2  0  0  0  0
M  END
$$$$

 OpenBabel12201709243D

 15 14  0  0  0  0  0  0  0  0999 V2000
    2.5177    0.3595    1.5158 C   0  0  0  0  0  0  0  0  0  0  0  0
    2.5087   -0.0154    0.0452 C   0  0  0  0  0  0  0  0  0  0  0  0
    3.0381   -1.3421   -0.0784 O   0  0  0  0  0  0  0  0  0  0  0  0
    4.3867   -1.4129   -0.2125 C   0  0  0  0  0  0  0  0  0  0  0  0
    5.1513   -0.4874   -0.4329 O   0  0  0  0  0  0  0  0  0  0  0  0
    4.7857   -2.8033    0.0729 C   0  0  0  0  0  0  0  0  0  0  0  0
    6.0811   -3.1305    0.1644 C   0  0  0  0  0  0  0  0  0  0  0  0
    2.1083    1.3604    1.6714 H   0  0  0  0  0  0  0  0  0  0  0  0
    3.5350    0.3261    1.9207 H   0  0  0  0  0  0  0  0  0  0  0  0
    1.9277   -0.3604    2.0938 H   0  0  0  0  0  0  0  0  0  0  0  0
    3.0674    0.7091   -0.5584 H   0  0  0  0  0  0  0  0  0  0  0  0
    1.4814   -0.0322   -0.3325 H   0  0  0  0  0  0  0  0  0  0  0  0
    4.0026   -3.5266    0.2559 H   0  0  0  0  0  0  0  0  0  0  0  0
    6.8661   -2.3943    0.0045 H   0  0  0  0  0  0  0  0  0  0  0  0
    6.3839   -4.1376    0.4248 H   0  0  0  0  0  0  0  0  0  0  0  0
  1  2  1  0  0  0  0
  1  8  1  0  0  0  0
  1  9  1  0  0  0  0
  1 10  1  0  0  0  0
  2  3  1  0  0  0  0
  2 11  1  0  0  0  0
  2 12  1  0  0  0  0
  3  4  1  0  0  0  0
  4  5  2  0  0  0  0
  4  6  1  0  0  0  0
  6  7  2  0  0  0  0
  6 13  1  0  0  0  0
  7 14  1  0  0  0  0
  7 15  1  0  0  0  0
M  END
$$$$

 OpenBabel12201709243D

 14 14  0  0  0  0  0  0  0  0999 V2000
    1.0416    0.1117    0.2675 N   0  0  0  0  0  0  0  0  0  0  0  0
    2.4166    0.1328    0.0017 C   0  0  0  0  0  0  0  0  0  0  0  0
    3.1122    1.3446   -0.0130 C   0  0  0  0  0  0  0  0  0  0  0  0
    4.5020    1.3686   -0.1572 C   0  0  0  0  0  0  0  0  0  0  0  0
    5.2142    0.1748   -0.2430 C   0  0  0  0  0  0  0  0  0  0  0  0
    4.5376   -1.0401   -0.1640 C   0  0  0  0  0  0  0  0  0  0  0  0
    3.1476   -1.0580   -0.0206 C   0  0  0  0  0  0  0  0  0  0  0  0
    0.5573    0.9500   -0.0375 H   0  0  0  0  0  0  0  0  0  0  0  0
    0.5811   -0.7349   -0.0514 H   0  0  0  0  0  0  0  0  0  0  0  0
    2.5759    2.2841    0.0867 H   0  0  0  0  0  0  0  0  0  0  0  0
    5.0273    2.3193   -0.1872 H   0  0  0  0  0  0  0  0  0  0  0  0
    6.2955    0.1910   -0.3485 H   0  0  0  0  0  0  0  0  0  0  0  0
    5.0908   -1.9748   -0.1986 H   0  0  0  0  0  0  0  0  0  0  0  0
    2.6391   -2.0135    0.0735 H   0  0  0  0  0  0  0  0  0  0  0  0
  1  2  1  0  0  0  0
  1  8  1  0  0  0  0
  1  9  1  0  0  0  0
  2  3  2  0  0  0  0
  2  7  1  0  0  0  0
  3  4  1  0  0  0  0
  3 10  1  0  0  0  0
  4  5  2  0  0  0  0
  4 11  1  0  0  0  0
  5  6  1  0  0  0  0
  5 12  1  0  0  0  0
  6  7  2  0  0  0  0
  6 13  1  0  0  0  0
  7 14  1  0  0  0  0
M  END
$$$$

 OpenBabel12201709243D

 14 13  0  0  0  0  0  0  0  0999 V2000
    1.2582   -0.0778   -0.1002 N   0  0  0  0  0  0  0  0  0  0  0  0
    2.6089    0.0539   -0.0225 C   0  0  0  0  0  0  0  0  0  0  0  0
    3.3547    1.3838   -0.6981 S   0  0  0  0  0  0  0  0  0  0  0  0
    3.2235   -0.9633    0.6612 N   0  0  0  0  0  0  0  0  0  0  0  0
    4.6254   -1.0527    0.7098 N   0  0  0  0  0  0  0  0  0  0  0  0
    5.2533   -2.2687    0.6265 C   0  0  0  0  0  0  0  0  0  0  0  0
    4.5206   -3.7653    0.6569 S   0  0  0  0  0  0  0  0  0  0  0  0
    6.6073   -2.1767    0.5403 N   0  0  0  0  0  0  0  0  0  0  0  0
    0.7238    0.6756   -0.5181 H   0  0  0  0  0  0  0  0  0  0  0  0
    0.7536   -0.7623    0.4446 H   0  0  0  0  0  0  0  0  0  0  0  0
    2.7324   -1.8437    0.8010 H   0  0  0  0  0  0  0  0  0  0  0  0
    5.1188   -0.2110    0.4211 H   0  0  0  0  0  0  0  0  0  0  0  0
    7.0991   -1.3099    0.7007 H   0  0  0  0  0  0  0  0  0  0  0  0
    7.1489   -3.0325    0.5610 H   0  0  0  0  0  0  0  0  0  0  0  0
  1  2  1  0  0  0  0
  1  9  1  0  0  0  0
  1 10  1  0  0  0  0
  2  3  2  0  0  0  0
  2  4  1  0  0  0  0
  4  5  1  0  0  0  0
  4 11  1  0  0  0  0
  5  6  1  0  0  0  0
  5 12  1  0  0  0  0
  6  7  2  0  0  0  0
  6  8  1  0  0  0  0
  8 13  1  0  0  0  0
  8 14  1  0  0  0  0
M  END
$$$$

 OpenBabel12201709243D

 19 18  0  0  1  0  0  0  0  0999 V2000
    0.9587    0.1188   -0.0012 N   0  0  0  0  0  0  0  0  0  0  0  0
    2.4415   -0.0166   -0.0832 C   0  0  3  0  0  0  0  0  0  0  0  0
    2.8838   -1.2260   -0.9216 C   0  0  0  0  0  0  0  0  0  0  0  0
    2.4595   -2.5862   -0.3572 C   0  0  0  0  0  0  0  0  0  0  0  0
    3.0113   -2.8303    1.0284 C   0  0  0  0  0  0  0  0  0  0  0  0
    4.0435   -2.3418    1.4583 O   0  0  0  0  0  0  0  0  0  0  0  0
    2.2467   -3.6653    1.7647 O   0  0  0  0  0  0  0  0  0  0  0  0
    2.9982    1.2988   -0.6667 C   0  0  0  0  0  0  0  0  0  0  0  0
    4.0352    1.4279   -1.2964 O   0  0  0  0  0  0  0  0  0  0  0  0
    2.1669    2.3414   -0.3769 O   0  0  0  0  0  0  0  0  0  0  0  0
    0.5651   -0.7106    0.4440 H   0  0  0  0  0  0  0  0  0  0  0  0
    0.5805    0.1217   -0.9546 H   0  0  0  0  0  0  0  0  0  0  0  0
    2.8324   -0.0821    0.9373 H   0  0  0  0  0  0  0  0  0  0  0  0
    3.9776   -1.2116   -1.0193 H   0  0  0  0  0  0  0  0  0  0  0  0
    2.4922   -1.1319   -1.9431 H   0  0  0  0  0  0  0  0  0  0  0  0
    2.8313   -3.3866   -1.0045 H   0  0  0  0  0  0  0  0  0  0  0  0
    1.3670   -2.6519   -0.3371 H   0  0  0  0  0  0  0  0  0  0  0  0
    1.4664   -4.0262    1.3042 H   0  0  0  0  0  0  0  0  0  0  0  0
    1.3943    1.9501    0.1000 H   0  0  0  0  0  0  0  0  0  0  0  0
  1  2  1  0  0  0  0
  1 11  1  0  0  0  0
  1 12  1  0  0  0  0
  2  3  1  0  0  0  0
  2  8  1  0  0  0  0
  2 13  1  0  0  0  0
  3  4  1  0  0  0  0
  3 14  1  0  0  0  0
  3 15  1  0  0  0  0
  4  5  1  0  0  0  0
  4 16  1  0  0  0  0
  4 17  1  0  0  0  0
  5  6  2  0  0  0  0
  5  7  1  0  0  0  0
  7 18  1  0  0  0  0
  8  9  2  0  0  0  0
  8 10  1  0  0  0  0
 10 19  1  0  0  0  0
M  END
$$$$

 OpenBabel12201709243D

 21 25  0  0  1  0  0  0  0  0999 V2000
    3.3572    0.8419   -1.9985 Cl  0  0  0  0  0  0  0  0  0  0  0  0
    4.3736    0.2667   -0.6464 C   0  0  3  0  0  0  0  0  0  0  0  0
    4.1823    1.0548    0.6255 C   0  0  0  0  0  0  0  0  0  0  0  0
    3.4651    1.9931    0.9084 O   0  0  0  0  0  0  0  0  0  0  0  0
    5.1811    0.2594    1.4275 C   0  0  3  0  0  0  0  0  0  0  0  0
    5.3565    0.8282    3.1119 Cl  0  0  0  0  0  0  0  0  0  0  0  0
    4.9124   -1.2672    1.1809 C   0  0  3  0  0  0  0  0  0  0  0  0
    4.0592   -2.2148    2.4019 Cl  0  0  0  0  0  0  0  0  0  0  0  0
    4.3548   -1.2645   -0.3270 C   0  0  3  0  0  0  0  0  0  0  0  0
    2.9396   -2.2463   -0.7169 Cl  0  0  0  0  0  0  0  0  0  0  0  0
    5.9118    0.0826   -0.8992 C   0  0  3  0  0  0  0  0  0  0  0  0
    6.7240    1.0828   -2.1057 Cl  0  0  0  0  0  0  0  0  0  0  0  0
    6.4908    0.0506    0.5963 C   0  0  3  0  0  0  0  0  0  0  0  0
    7.9479    0.9787    0.9617 Cl  0  0  0  0  0  0  0  0  0  0  0  0
    6.4197   -1.4730    0.8922 C   0  0  3  0  0  0  0  0  0  0  0  0
    7.4087   -2.0513    2.3040 Cl  0  0  0  0  0  0  0  0  0  0  0  0
    6.6554   -2.2807   -0.3436 C   0  0  0  0  0  0  0  0  0  0  0  0
    6.1355   -3.9636   -0.1849 Cl  0  0  0  0  0  0  0  0  0  0  0  0
    8.3067   -2.1775   -0.9484 Cl  0  0  0  0  0  0  0  0  0  0  0  0
    5.6848   -1.4369   -1.1100 C   0  0  3  0  0  0  0  0  0  0  0  0
    5.5233   -1.9566   -2.8463 Cl  0  0  0  0  0  0  0  0  0  0  0  0
  1  2  1  0  0  0  0
  2  3  1  0  0  0  0
  2  9  1  0  0  0  0
  2 11  1  0  0  0  0
  3  4  2  0  0  0  0
  3  5  1  0  0  0  0
  5  6  1  0  0  0  0
  5  7  1  0  0  0  0
  5 13  1  0  0  0  0
  7  8  1  0  0  0  0
  7  9  1  0  0  0  0
  7 15  1  0  0  0  0
  9 10  1  0  0  0  0
  9 20  1  0  0  0  0
 11 12  1  0  0  0  0
 11 13  1  0  0  0  0
 11 20  1  0  0  0  0
 13 14  1  0  0  0  0
 13 15  1  0  0  0  0
 15 16  1  0  0  0  0
 15 17  1  0  0  0  0
 17 18  1  0  0  0  0
 17 19  1  0  0  0  0
 17 20  1  0  0  0  0
 20 21  1  0  0  0  0
M  END
$$$$

 OpenBabel12201709243D

 28 29  0  0  0  0  0  0  0  0999 V2000
    2.4871   -1.2518   -0.6919 N   0  0  0  0  0  0  0  0  0  0  0  0
    3.9332   -1.3858   -0.4745 C   0  0  0  0  0  0  0  0  0  0  0  0
    4.7623   -0.4634   -1.3848 C   0  0  0  0  0  0  0  0  0  0  0  0
    4.5227    0.9564   -1.0974 N   0  0  0  0  0  0  0  0  0  0  0  0
    5.0914    1.9214   -1.9612 C   0  0  0  0  0  0  0  0  0  0  0  0
    6.0218    1.5547   -2.9509 C   0  0  0  0  0  0  0  0  0  0  0  0
    6.5817    2.4867   -3.8194 C   0  0  0  0  0  0  0  0  0  0  0  0
    6.2438    3.8264   -3.7027 C   0  0  0  0  0  0  0  0  0  0  0  0
    5.3709    4.2561   -2.6980 C   0  0  0  0  0  0  0  0  0  0  0  0
    5.0786    5.6239   -2.5885 C   0  0  0  0  0  0  0  0  0  0  0  0
    4.2571    6.0999   -1.5729 C   0  0  0  0  0  0  0  0  0  0  0  0
    3.7256    5.2110   -0.6476 C   0  0  0  0  0  0  0  0  0  0  0  0
    3.9920    3.8410   -0.7585 C   0  0  0  0  0  0  0  0  0  0  0  0
    4.8047    3.3157   -1.7899 C   0  0  0  0  0  0  0  0  0  0  0  0
    2.0087   -1.9743   -0.1535 H   0  0  0  0  0  0  0  0  0  0  0  0
    2.2736   -1.4449   -1.6706 H   0  0  0  0  0  0  0  0  0  0  0  0
    4.2227   -2.4234   -0.6780 H   0  0  0  0  0  0  0  0  0  0  0  0
    4.1559   -1.1791    0.5772 H   0  0  0  0  0  0  0  0  0  0  0  0
    4.5070   -0.6919   -2.4275 H   0  0  0  0  0  0  0  0  0  0  0  0
    5.8215   -0.6939   -1.2237 H   0  0  0  0  0  0  0  0  0  0  0  0
    3.5299    1.1361   -0.9335 H   0  0  0  0  0  0  0  0  0  0  0  0
    6.3244    0.5220   -3.0852 H   0  0  0  0  0  0  0  0  0  0  0  0
    7.2811    2.1617   -4.5841 H   0  0  0  0  0  0  0  0  0  0  0  0
    6.6887    4.5382   -4.3940 H   0  0  0  0  0  0  0  0  0  0  0  0
    5.5026    6.3347   -3.2954 H   0  0  0  0  0  0  0  0  0  0  0  0
    4.0454    7.1638   -1.4994 H   0  0  0  0  0  0  0  0  0  0  0  0
    3.1056    5.5817    0.1641 H   0  0  0  0  0  0  0  0  0  0  0  0
    3.5758    3.1763   -0.0031 H   0  0  0  0  0  0  0  0  0  0  0  0
  1  2  1  0  0  0  0
  1 15  1  0  0  0  0
  1 16  1  0  0  0  0
  2  3  1  0  0  0  0
  2 17  1  0  0  0  0
  2 18  1  0  0  0  0
  3  4  1  0  0  0  0
  3 19  1  0  0  0  0
  3 20  1  0  0  0  0
  4  5  1  0  0  0  0
  4 21  1  0  0  0  0
  5  6  2  0  0  0  0
  5 14  1  0  0  0  0
  6  7  1  0  0  0  0
  6 22  1  0  0  0  0
  7  8  2  0  0  0  0
  7 23  1  0  0  0  0
  8  9  1  0  0  0  0
  8 24  1  0  0  0  0
  9 10  2  0  0  0  0
  9 14  1  0  0  0  0
 10 11  1  0  0  0  0
 10 25  1  0  0  0  0
 11 12  2  0  0  0  0
 11 26  1  0  0  0  0
 12 13  1  0  0  0  0
 12 27  1  0  0  0  0
 13 14  2  0  0  0  0
 13 28  1  0  0  0  0
M  END
$$$$

 OpenBabel12201709243D

 40 41  0  0  0  0  0  0  0  0999 V2000
    4.9802   -2.7636    0.8692 C   0  0  0  0  0  0  0  0  0  0  0  0
    4.4168   -1.4707    0.4712 N   0  0  0  0  0  0  0  0  0  0  0  0
    2.9597   -1.5495    0.4206 C   0  0  0  0  0  0  0  0  0  0  0  0
    4.8789   -0.4240    1.4011 C   0  0  0  0  0  0  0  0  0  0  0  0
    4.4497    1.0071    1.0296 C   0  0  0  0  0  0  0  0  0  0  0  0
    4.9614    2.0060    1.9192 O   0  0  0  0  0  0  0  0  0  0  0  0
    6.3926    2.1581    1.9461 C   0  0  0  0  0  0  0  0  0  0  0  0
    6.9382    2.5111    0.5706 C   0  0  0  0  0  0  0  0  0  0  0  0
    6.5885    3.7056   -0.0778 C   0  0  0  0  0  0  0  0  0  0  0  0
    6.9558    3.9240   -1.4077 C   0  0  0  0  0  0  0  0  0  0  0  0
    7.6744    2.9565   -2.1067 C   0  0  0  0  0  0  0  0  0  0  0  0
    8.0490    1.7763   -1.4710 C   0  0  0  0  0  0  0  0  0  0  0  0
    7.6928    1.5589   -0.1396 C   0  0  0  0  0  0  0  0  0  0  0  0
    6.7489    3.1299    3.0664 C   0  0  0  0  0  0  0  0  0  0  0  0
    7.9450    2.9611    3.7841 C   0  0  0  0  0  0  0  0  0  0  0  0
    8.2355    3.7675    4.8873 C   0  0  0  0  0  0  0  0  0  0  0  0
    7.3445    4.7651    5.2781 C   0  0  0  0  0  0  0  0  0  0  0  0
    6.1707    4.9681    4.5572 C   0  0  0  0  0  0  0  0  0  0  0  0
    5.8752    4.1575    3.4586 C   0  0  0  0  0  0  0  0  0  0  0  0
    4.6835   -3.5476    0.1631 H   0  0  0  0  0  0  0  0  0  0  0  0
    4.6573   -3.0619    1.8729 H   0  0  0  0  0  0  0  0  0  0  0  0
    6.0766   -2.7297    0.8548 H   0  0  0  0  0  0  0  0  0  0  0  0
    2.6411   -2.3844   -0.2156 H   0  0  0  0  0  0  0  0  0  0  0  0
    2.5338   -0.6508   -0.0356 H   0  0  0  0  0  0  0  0  0  0  0  0
    2.5146   -1.6888    1.4122 H   0  0  0  0  0  0  0  0  0  0  0  0
    5.9709   -0.4669    1.4142 H   0  0  0  0  0  0  0  0  0  0  0  0
    4.5626   -0.6348    2.4312 H   0  0  0  0  0  0  0  0  0  0  0  0
    3.3605    1.0913    1.1035 H   0  0  0  0  0  0  0  0  0  0  0  0
    4.7071    1.2479   -0.0063 H   0  0  0  0  0  0  0  0  0  0  0  0
    6.8138    1.1995    2.2678 H   0  0  0  0  0  0  0  0  0  0  0  0
    5.9882    4.4513    0.4369 H   0  0  0  0  0  0  0  0  0  0  0  0
    6.6574    4.8427   -1.9065 H   0  0  0  0  0  0  0  0  0  0  0  0
    7.9306    3.1156   -3.1510 H   0  0  0  0  0  0  0  0  0  0  0  0
    8.5955    1.0120   -2.0185 H   0  0  0  0  0  0  0  0  0  0  0  0
    7.9654    0.6135    0.3241 H   0  0  0  0  0  0  0  0  0  0  0  0
    8.6458    2.1769    3.5062 H   0  0  0  0  0  0  0  0  0  0  0  0
    9.1497    3.6060    5.4523 H   0  0  0  0  0  0  0  0  0  0  0  0
    7.5620    5.3794    6.1472 H   0  0  0  0  0  0  0  0  0  0  0  0
    5.4718    5.7429    4.8614 H   0  0  0  0  0  0  0  0  0  0  0  0
    4.9396    4.3115    2.9248 H   0  0  0  0  0  0  0  0  0  0  0  0
  1  2  1  0  0  0  0
  1 20  1  0  0  0  0
  1 21  1  0  0  0  0
  1 22  1  0  0  0  0
  2  3  1  0  0  0  0
  2  4  1  0  0  0  0
  3 23  1  0  0  0  0
  3 24  1  0  0  0  0
  3 25  1  0  0  0  0
  4  5  1  0  0  0  0
  4 26  1  0  0  0  0
  4 27  1  0  0  0  0
  5  6  1  0  0  0  0
  5 28  1  0  0  0  0
  5 29  1  0  0  0  0
  6  7  1  0  0  0  0
  7  8  1  0  0  0  0
  7 14  1  0  0  0  0
  7 30  1  0  0  0  0
  8  9  2  0  0  0  0
  8 13  1  0  0  0  0
  9 10  1  0  0  0  0
  9 31  1  0  0  0  0
 10 11  2  0  0  0  0
 10 32  1  0  0  0  0
 11 12  1  0  0  0  0
 11 33  1  0  0  0  0
 12 13  2  0  0  0  0
 12 34  1  0  0  0  0
 13 35  1  0  0  0  0
 14 15  2  0  0  0  0
 14 19  1  0  0  0  0
 15 16  1  0  0  0  0
 15 36  1  0  0  0  0
 16 17  2  0  0  0  0
 16 37  1  0  0  0  0
 17 18  1  0  0  0  0
 17 38  1  0  0  0  0
 18 19  2  0  0  0  0
 18 39  1  0  0  0  0
 19 40  1  0  0  0  0
M  END
$$$$

 OpenBabel12201709243D

 19 18  0  0  0  0  0  0  0  0999 V2000
    1.7075   -1.0663    0.2013 C   0  0  0  0  0  0  0  0  0  0  0  0
    2.4903    0.2242   -0.0662 C   0  0  0  0  0  0  0  0  0  0  0  0
    2.9397    0.8457    1.1807 N   0  0  0  0  0  0  0  0  0  0  0  0
    1.9391    1.3168    2.1393 C   0  0  0  0  0  0  0  0  0  0  0  0
    2.0221    2.8392    2.2830 C   0  0  0  0  0  0  0  0  0  0  0  0
    4.3482    1.0140    1.4325 C   0  0  0  0  0  0  0  0  0  0  0  0
    4.8741    1.1316    2.7706 S   0  0  0  0  0  0  0  0  0  0  0  0
    5.4825    1.3623    0.0857 S   0  0  0  0  0  0  0  0  0  0  0  0
    5.2324    3.7715    0.7160 Na  0  0  0  0  0  0  0  0  0  0  0  0
    1.4237   -1.5405   -0.7636 H   0  0  0  0  0  0  0  0  0  0  0  0
    0.7718   -0.8738    0.7646 H   0  0  0  0  0  0  0  0  0  0  0  0
    2.3300   -1.7824    0.7774 H   0  0  0  0  0  0  0  0  0  0  0  0
    1.8609    0.9364   -0.6397 H   0  0  0  0  0  0  0  0  0  0  0  0
    3.3529   -0.0622   -0.7055 H   0  0  0  0  0  0  0  0  0  0  0  0
    2.0825    0.8237    3.1217 H   0  0  0  0  0  0  0  0  0  0  0  0
    0.9115    1.0898    1.7910 H   0  0  0  0  0  0  0  0  0  0  0  0
    3.0149    3.1692    2.6547 H   0  0  0  0  0  0  0  0  0  0  0  0
    1.2517    3.1962    2.9939 H   0  0  0  0  0  0  0  0  0  0  0  0
    1.8452    3.3180    1.2952 H   0  0  0  0  0  0  0  0  0  0  0  0
  1  2  1  0  0  0  0
  1 10  1  0  0  0  0
  1 11  1  0  0  0  0
  1 12  1  0  0  0  0
  2  3  1  0  0  0  0
  2 13  1  0  0  0  0
  2 14  1  0  0  0  0
  3  4  1  0  0  0  0
  3  6  1  0  0  0  0
  4  5  1  0  0  0  0
  4 15  1  0  0  0  0
  4 16  1  0  0  0  0
  5 17  1  0  0  0  0
  5 18  1  0  0  0  0
  5 19  1  0  0  0  0
  6  7  2  0  0  0  0
  6  8  1  0  0  0  0
  8  9  1  0  0  0  0
M  END
$$$$

 OpenBabel12201709243D

 18 19  0  0  0  0  0  0  0  0999 V2000
    0.9628    0.1230   -0.0290 O   0  0  0  0  0  0  0  0  0  0  0  0
    2.3393    0.1036   -0.0234 C   0  0  0  0  0  0  0  0  0  0  0  0
    2.9926   -1.1333    0.0000 C   0  0  0  0  0  0  0  0  0  0  0  0
    4.3817   -1.1760    0.0070 C   0  0  0  0  0  0  0  0  0  0  0  0
    5.1074    0.0126   -0.0094 C   0  0  0  0  0  0  0  0  0  0  0  0
    4.4478    1.2548   -0.0349 C   0  0  0  0  0  0  0  0  0  0  0  0
    5.1731    2.4544   -0.0550 C   0  0  0  0  0  0  0  0  0  0  0  0
    4.5039    3.6705   -0.0831 C   0  0  0  0  0  0  0  0  0  0  0  0
    3.1246    3.6469   -0.0886 C   0  0  0  0  0  0  0  0  0  0  0  0
    2.3928    2.5133   -0.0680 N   0  0  0  0  0  0  0  0  0  0  0  0
    3.0363    1.3217   -0.0423 C   0  0  0  0  0  0  0  0  0  0  0  0
    0.6271   -0.7853   -0.0140 H   0  0  0  0  0  0  0  0  0  0  0  0
    2.4329   -2.0634    0.0123 H   0  0  0  0  0  0  0  0  0  0  0  0
    4.9002   -2.1313    0.0246 H   0  0  0  0  0  0  0  0  0  0  0  0
    6.1944   -0.0332   -0.0034 H   0  0  0  0  0  0  0  0  0  0  0  0
    6.2600    2.4463   -0.0501 H   0  0  0  0  0  0  0  0  0  0  0  0
    5.0438    4.6099   -0.1009 H   0  0  0  0  0  0  0  0  0  0  0  0
    2.5467    4.5662   -0.1101 H   0  0  0  0  0  0  0  0  0  0  0  0
  1  2  1  0  0  0  0
  1 12  1  0  0  0  0
  2  3  2  0  0  0  0
  2 11  1  0  0  0  0
  3  4  1  0  0  0  0
  3 13  1  0  0  0  0
  4  5  2  0  0  0  0
  4 14  1  0  0  0  0
  5  6  1  0  0  0  0
  5 15  1  0  0  0  0
  6  7  2  0  0  0  0
  6 11  1  0  0  0  0
  7  8  1  0  0  0  0
  7 16  1  0  0  0  0
  8  9  2  0  0  0  0
  8 17  1  0  0  0  0
  9 10  1  0  0  0  0
  9 18  1  0  0  0  0
 10 11  2  0  0  0  0
M  END
$$$$

 OpenBabel12201709243D

 21 23  0  0  0  0  0  0  0  0999 V2000
   -1.1653    0.2036   -0.0041 C   0  0  0  0  0  0  0  0  0  0  0  0
   -0.2941    1.1903   -0.0025 N   0  0  0  0  0  0  0  0  0  0  0  0
    0.9839    0.6537    0.0002 C   0  0  0  0  0  0  0  0  0  0  0  0
    1.0586   -0.7237    0.0004 C   0  0  0  0  0  0  0  0  0  0  0  0
   -0.5209   -1.3876   -0.0027 S   0  0  0  0  0  0  0  0  0  0  0  0
    2.1932    1.5186    0.0030 C   0  0  0  0  0  0  0  0  0  0  0  0
    3.4384    1.0891    0.0061 N   0  0  0  0  0  0  0  0  0  0  0  0
    4.2114    2.2233    0.0092 C   0  0  0  0  0  0  0  0  0  0  0  0
    5.6075    2.3524    0.0142 C   0  0  0  0  0  0  0  0  0  0  0  0
    6.1632    3.6375    0.0174 C   0  0  0  0  0  0  0  0  0  0  0  0
    5.3451    4.7703    0.0157 C   0  0  0  0  0  0  0  0  0  0  0  0
    3.9486    4.6622    0.0106 C   0  0  0  0  0  0  0  0  0  0  0  0
    3.4213    3.3694    0.0073 C   0  0  0  0  0  0  0  0  0  0  0  0
    2.1377    2.8879    0.0032 N   0  0  0  0  0  0  0  0  0  0  0  0
    1.2822    3.4247    0.0014 H   0  0  0  0  0  0  0  0  0  0  0  0
   -2.2343    0.3736   -0.0061 H   0  0  0  0  0  0  0  0  0  0  0  0
    1.9444   -1.3440    0.0023 H   0  0  0  0  0  0  0  0  0  0  0  0
    6.2346    1.4681    0.0158 H   0  0  0  0  0  0  0  0  0  0  0  0
    7.2447    3.7510    0.0214 H   0  0  0  0  0  0  0  0  0  0  0  0
    5.8036    5.7576    0.0182 H   0  0  0  0  0  0  0  0  0  0  0  0
    3.3160    5.5432    0.0095 H   0  0  0  0  0  0  0  0  0  0  0  0
  1  2  2  0  0  0  0
  1  5  1  0  0  0  0
  1 16  1  0  0  0  0
  2  3  1  0  0  0  0
  3  4  2  0  0  0  0
  3  6  1  0  0  0  0
  4  5  1  0  0  0  0
  4 17  1  0  0  0  0
  6  7  2  0  0  0  0
  6 14  1  0  0  0  0
  7  8  1  0  0  0  0
  8  9  2  0  0  0  0
  8 13  1  0  0  0  0
  9 10  1  0  0  0  0
  9 18  1  0  0  0  0
 10 11  2  0  0  0  0
 10 19  1  0  0  0  0
 11 12  1  0  0  0  0
 11 20  1  0  0  0  0
 12 13  2  0  0  0  0
 12 21  1  0  0  0  0
 13 14  1  0  0  0  0
 14 15  1  0  0  0  0
M  END
$$$$

 OpenBabel12201709243D

 37 37  0  0  1  0  0  0  0  0999 V2000
    2.4826    0.0642   -1.0258 N   0  0  0  0  0  0  0  0  0  0  0  0
    3.4441    0.1541    0.1196 C   0  0  3  0  0  0  0  0  0  0  0  0
    2.8524    0.7877    1.3920 C   0  0  0  0  0  0  0  0  0  0  0  0
    2.3825    2.2131    1.2107 C   0  0  0  0  0  0  0  0  0  0  0  0
    1.0573    2.4954    0.8715 C   0  0  0  0  0  0  0  0  0  0  0  0
    0.6327    3.8158    0.6479 C   0  0  0  0  0  0  0  0  0  0  0  0
    1.5181    4.9009    0.7465 C   0  0  0  0  0  0  0  0  0  0  0  0
    2.8279    4.5981    1.1582 C   0  0  0  0  0  0  0  0  0  0  0  0
    3.2620    3.2828    1.3754 C   0  0  0  0  0  0  0  0  0  0  0  0
    1.1524    6.2106    0.4384 N   0  0  0  0  0  0  0  0  0  0  0  0
   -0.2581    6.6452    0.3941 C   0  0  0  0  0  0  0  0  0  0  0  0
   -0.8985    6.7572    1.7812 C   0  0  0  0  0  0  0  0  0  0  0  0
   -0.0627    7.9487    2.8162 Cl  0  0  0  0  0  0  0  0  0  0  0  0
    2.1077    7.0356   -0.3374 C   0  0  0  0  0  0  0  0  0  0  0  0
    2.4946    6.4358   -1.6953 C   0  0  0  0  0  0  0  0  0  0  0  0
    1.0993    6.2724   -2.7964 Cl  0  0  0  0  0  0  0  0  0  0  0  0
    3.9415   -1.2724    0.4193 C   0  0  0  0  0  0  0  0  0  0  0  0
    4.4200   -1.6570    1.4734 O   0  0  0  0  0  0  0  0  0  0  0  0
    3.8096   -2.0715   -0.6745 O   0  0  0  0  0  0  0  0  0  0  0  0
    2.2750    1.0253   -1.3196 H   0  0  0  0  0  0  0  0  0  0  0  0
    1.5872   -0.2751   -0.6581 H   0  0  0  0  0  0  0  0  0  0  0  0
    4.3154    0.7227   -0.2262 H   0  0  0  0  0  0  0  0  0  0  0  0
    3.6090    0.7732    2.1886 H   0  0  0  0  0  0  0  0  0  0  0  0
    2.0257    0.1750    1.7737 H   0  0  0  0  0  0  0  0  0  0  0  0
    0.3320    1.6919    0.7661 H   0  0  0  0  0  0  0  0  0  0  0  0
   -0.3992    3.9623    0.3559 H   0  0  0  0  0  0  0  0  0  0  0  0
    3.5428    5.3976    1.3353 H   0  0  0  0  0  0  0  0  0  0  0  0
    4.2917    3.1144    1.6851 H   0  0  0  0  0  0  0  0  0  0  0  0
   -0.8530    5.9819   -0.2438 H   0  0  0  0  0  0  0  0  0  0  0  0
   -0.3349    7.6319   -0.0802 H   0  0  0  0  0  0  0  0  0  0  0  0
   -0.9069    5.8008    2.3100 H   0  0  0  0  0  0  0  0  0  0  0  0
   -1.9334    7.1012    1.6815 H   0  0  0  0  0  0  0  0  0  0  0  0
    3.0138    7.2074    0.2551 H   0  0  0  0  0  0  0  0  0  0  0  0
    1.6945    8.0393   -0.4993 H   0  0  0  0  0  0  0  0  0  0  0  0
    2.9525    5.4481   -1.5960 H   0  0  0  0  0  0  0  0  0  0  0  0
    3.2170    7.0898   -2.1928 H   0  0  0  0  0  0  0  0  0  0  0  0
    3.3640   -1.5184   -1.3646 H   0  0  0  0  0  0  0  0  0  0  0  0
  1  2  1  0  0  0  0
  1 20  1  0  0  0  0
  1 21  1  0  0  0  0
  2  3  1  0  0  0  0
  2 17  1  0  0  0  0
  2 22  1  0  0  0  0
  3  4  1  0  0  0  0
  3 23  1  0  0  0  0
  3 24  1  0  0  0  0
  4  5  2  0  0  0  0
  4  9  1  0  0  0  0
  5  6  1  0  0  0  0
  5 25  1  0  0  0  0
  6  7  2  0  0  0  0
  6 26  1  0  0  0  0
  7  8  1  0  0  0  0
  7 10  1  0  0  0  0
  8  9  2  0  0  0  0
  8 27  1  0  0  0  0
  9 28  1  0  0  0  0
 10 11  1  0  0  0  0
 10 14  1  0  0  0  0
 11 12  1  0  0  0  0
 11 29  1  0  0  0  0
 11 30  1  0  0  0  0
 12 13  1  0  0  0  0
 12 31  1  0  0  0  0
 12 32  1  0  0  0  0
 14 15  1  0  0  0  0
 14 33  1  0  0  0  0
 14 34  1  0  0  0  0
 15 16  1  0  0  0  0
 15 35  1  0  0  0  0
 15 36  1  0  0  0  0
 17 18  2  0  0  0  0
 17 19  1  0  0  0  0
 19 37  1  0  0  0  0
M  END
$$$$

 OpenBabel12201709243D

 17 18  0  0  1  0  0  0  0  0999 V2000
    0.9935    0.0096    0.0205 O   0  0  0  0  0  0  0  0  0  0  0  0
    2.4079    0.0192    0.0453 C   0  0  3  0  0  0  0  0  0  0  0  0
    2.8824    1.3062    0.4346 O   0  0  0  0  0  0  0  0  0  0  0  0
    2.6199    2.3388   -0.5275 C   0  0  0  0  0  0  0  0  0  0  0  0
    3.1196    1.9688   -1.8916 C   0  0  0  0  0  0  0  0  0  0  0  0
    3.2642    0.6809   -2.2067 C   0  0  0  0  0  0  0  0  0  0  0  0
    3.7274    0.1762   -3.3986 O   0  0  0  0  0  0  0  0  0  0  0  0
    3.7059   -1.1834   -3.1975 C   0  0  0  0  0  0  0  0  0  0  0  0
    4.0538   -2.0216   -4.0141 O   0  0  0  0  0  0  0  0  0  0  0  0
    3.2123   -1.5187   -1.8569 C   0  0  0  0  0  0  0  0  0  0  0  0
    2.9331   -0.3511   -1.2958 C   0  0  0  0  0  0  0  0  0  0  0  0
    0.7286    0.0176    0.9549 H   0  0  0  0  0  0  0  0  0  0  0  0
    2.7475   -0.7052    0.7938 H   0  0  0  0  0  0  0  0  0  0  0  0
    3.1440    3.2345   -0.1795 H   0  0  0  0  0  0  0  0  0  0  0  0
    1.5486    2.5669   -0.5511 H   0  0  0  0  0  0  0  0  0  0  0  0
    3.3493    2.7514   -2.6051 H   0  0  0  0  0  0  0  0  0  0  0  0
    3.1031   -2.5168   -1.4780 H   0  0  0  0  0  0  0  0  0  0  0  0
  1  2  1  0  0  0  0
  1 12  1  0  0  0  0
  2  3  1  0  0  0  0
  2 11  1  0  0  0  0
  2 13  1  0  0  0  0
  3  4  1  0  0  0  0
  4  5  1  0  0  0  0
  4 14  1  0  0  0  0
  4 15  1  0  0  0  0
  5  6  2  0  0  0  0
  5 16  1  0  0  0  0
  6  7  1  0  0  0  0
  6 11  1  0  0  0  0
  7  8  1  0  0  0  0
  8  9  2  0  0  0  0
  8 10  1  0  0  0  0
 10 11  2  0  0  0  0
 10 17  1  0  0  0  0
M  END
$$$$

 OpenBabel12201709243D

 15 16  0  0  0  0  0  0  0  0999 V2000
    0.9189    0.3270    0.0927 S   0  0  0  0  0  0  0  0  0  0  0  0
    2.6437    0.0640    0.0943 C   0  0  0  0  0  0  0  0  0  0  0  0
    3.4682    1.0836    0.0962 N   0  0  0  0  0  0  0  0  0  0  0  0
    4.7732    0.6179    0.0968 C   0  0  0  0  0  0  0  0  0  0  0  0
    5.9357    1.4154    0.0987 C   0  0  0  0  0  0  0  0  0  0  0  0
    7.1962    0.8088    0.0989 C   0  0  0  0  0  0  0  0  0  0  0  0
    7.3113   -0.5778    0.0973 C   0  0  0  0  0  0  0  0  0  0  0  0
    6.1745   -1.3920    0.0955 C   0  0  0  0  0  0  0  0  0  0  0  0
    4.9137   -0.7726    0.0953 C   0  0  0  0  0  0  0  0  0  0  0  0
    3.3479   -1.4909    0.0933 S   0  0  0  0  0  0  0  0  0  0  0  0
    0.9881    1.6649    0.0929 H   0  0  0  0  0  0  0  0  0  0  0  0
    5.8426    2.4970    0.1000 H   0  0  0  0  0  0  0  0  0  0  0  0
    8.0904    1.4281    0.1003 H   0  0  0  0  0  0  0  0  0  0  0  0
    8.2982   -1.0364    0.0974 H   0  0  0  0  0  0  0  0  0  0  0  0
    6.2660   -2.4740    0.0943 H   0  0  0  0  0  0  0  0  0  0  0  0
  1  2  1  0  0  0  0
  1 11  1  0  0  0  0
  2  3  2  0  0  0  0
  2 10  1  0  0  0  0
  3  4  1  0  0  0  0
  4  5  2  0  0  0  0
  4  9  1  0  0  0  0
  5  6  1  0  0  0  0
  5 12  1  0  0  0  0
  6  7  2  0  0  0  0
  6 13  1  0  0  0  0
  7  8  1  0  0  0  0
  7 14  1  0  0  0  0
  8  9  2  0  0  0  0
  8 15  1  0  0  0  0
  9 10  1  0  0  0  0
M  END
$$$$

 OpenBabel12201709243D

 18 18  0  0  0  0  0  0  0  0999 V2000
    3.4029   -0.9775    0.3499 O   0  0  0  0  0  0  0  0  0  0  0  0
    2.5688    0.0403    0.0570 C   0  0  0  0  0  0  0  0  0  0  0  0
    1.3757    0.0243    0.3078 O   0  0  0  0  0  0  0  0  0  0  0  0
    3.2406    1.2209   -0.5360 C   0  0  0  0  0  0  0  0  0  0  0  0
    2.7197    2.4923   -0.2349 C   0  0  0  0  0  0  0  0  0  0  0  0
    3.3251    3.6212   -0.7752 C   0  0  0  0  0  0  0  0  0  0  0  0
    2.8715    4.8837   -0.5161 O   0  0  0  0  0  0  0  0  0  0  0  0
    4.4305    3.4888   -1.6079 C   0  0  0  0  0  0  0  0  0  0  0  0
    5.0365    4.5918   -2.1435 O   0  0  0  0  0  0  0  0  0  0  0  0
    4.9301    2.2297   -1.9159 C   0  0  0  0  0  0  0  0  0  0  0  0
    6.0105    2.1034   -2.7387 O   0  0  0  0  0  0  0  0  0  0  0  0
    4.3389    1.0865   -1.3971 C   0  0  0  0  0  0  0  0  0  0  0  0
    4.3539   -0.7858    0.2499 H   0  0  0  0  0  0  0  0  0  0  0  0
    1.8516    2.5763    0.4143 H   0  0  0  0  0  0  0  0  0  0  0  0
    2.0866    4.8197    0.0576 H   0  0  0  0  0  0  0  0  0  0  0  0
    4.5088    5.3465   -1.8086 H   0  0  0  0  0  0  0  0  0  0  0  0
    6.2464    3.0215   -2.9856 H   0  0  0  0  0  0  0  0  0  0  0  0
    4.7229    0.1150   -1.6936 H   0  0  0  0  0  0  0  0  0  0  0  0
  1  2  1  0  0  0  0
  1 13  1  0  0  0  0
  2  3  2  0  0  0  0
  2  4  1  0  0  0  0
  4  5  2  0  0  0  0
  4 12  1  0  0  0  0
  5  6  1  0  0  0  0
  5 14  1  0  0  0  0
  6  7  1  0  0  0  0
  6  8  2  0  0  0  0
  7 15  1  0  0  0  0
  8  9  1  0  0  0  0
  8 10  1  0  0  0  0
  9 16  1  0  0  0  0
 10 11  1  0  0  0  0
 10 12  2  0  0  0  0
 11 17  1  0  0  0  0
 12 18  1  0  0  0  0
M  END
$$$$

 OpenBabel12201709243D

 36 35  0  0  0  0  0  0  0  0999 V2000
    3.5637   -2.6096   -2.6869 O   0  0  0  0  0  0  0  0  0  0  0  0
    4.8594   -2.3150   -2.4592 C   0  0  0  0  0  0  0  0  0  0  0  0
    5.6978   -3.1975   -2.5333 O   0  0  0  0  0  0  0  0  0  0  0  0
    5.2862   -0.9043   -2.1300 C   0  0  0  0  0  0  0  0  0  0  0  0
    4.6544   -0.3853   -0.8875 N   0  0  0  0  0  0  0  0  0  0  0  0
    5.0632   -1.2287    0.2720 C   0  0  0  0  0  0  0  0  0  0  0  0
    4.4008   -0.8138    1.6141 C   0  0  0  0  0  0  0  0  0  0  0  0
    4.7383   -1.7037    2.7622 N   0  0  0  0  0  0  0  0  0  0  0  0
    6.2083   -1.7272    2.9897 C   0  0  0  0  0  0  0  0  0  0  0  0
    6.6279   -2.6198    4.1233 C   0  0  0  0  0  0  0  0  0  0  0  0
    6.3567   -3.8089    4.1041 O   0  0  0  0  0  0  0  0  0  0  0  0
    7.3559   -2.1135    5.1378 O   0  0  0  0  0  0  0  0  0  0  0  0
    8.0975   -3.3095    6.5766 Na  0  0  0  0  0  0  0  0  0  0  0  0
    4.0465   -1.2150    3.9859 C   0  0  0  0  0  0  0  0  0  0  0  0
    2.5465   -1.2602    3.8570 C   0  0  0  0  0  0  0  0  0  0  0  0
    1.8912   -0.2363    3.9648 O   0  0  0  0  0  0  0  0  0  0  0  0
    1.9207   -2.4304    3.6320 O   0  0  0  0  0  0  0  0  0  0  0  0
   -0.0896   -2.4517    3.4846 Na  0  0  0  0  0  0  0  0  0  0  0  0
    5.0747    1.0266   -0.6659 C   0  0  0  0  0  0  0  0  0  0  0  0
    4.7173    1.9421   -1.8033 C   0  0  0  0  0  0  0  0  0  0  0  0
    5.5925    2.5582   -2.3895 O   0  0  0  0  0  0  0  0  0  0  0  0
    3.4310    2.1151   -2.1583 O   0  0  0  0  0  0  0  0  0  0  0  0
    3.0148    3.4426   -3.6141 Na  0  0  0  0  0  0  0  0  0  0  0  0
    2.8758   -1.9310   -2.6536 H   0  0  0  0  0  0  0  0  0  0  0  0
    4.9887   -0.2873   -3.0038 H   0  0  0  0  0  0  0  0  0  0  0  0
    6.3973   -0.8587   -2.0438 H   0  0  0  0  0  0  0  0  0  0  0  0
    6.1685   -1.1925    0.3479 H   0  0  0  0  0  0  0  0  0  0  0  0
    4.7599   -2.2834    0.0959 H   0  0  0  0  0  0  0  0  0  0  0  0
    3.3038   -0.8419    1.4340 H   0  0  0  0  0  0  0  0  0  0  0  0
    4.6836    0.2217    1.8868 H   0  0  0  0  0  0  0  0  0  0  0  0
    6.5910   -0.6953    3.1640 H   0  0  0  0  0  0  0  0  0  0  0  0
    6.7273   -2.1571    2.1137 H   0  0  0  0  0  0  0  0  0  0  0  0
    4.3720   -0.1758    4.2236 H   0  0  0  0  0  0  0  0  0  0  0  0
    4.2972   -1.8552    4.8575 H   0  0  0  0  0  0  0  0  0  0  0  0
    6.1716    1.0751   -0.4750 H   0  0  0  0  0  0  0  0  0  0  0  0
    4.5451    1.4593    0.2031 H   0  0  0  0  0  0  0  0  0  0  0  0
  1  2  1  0  0  0  0
  1 24  1  0  0  0  0
  2  3  2  0  0  0  0
  2  4  1  0  0  0  0
  4  5  1  0  0  0  0
  4 25  1  0  0  0  0
  4 26  1  0  0  0  0
  5  6  1  0  0  0  0
  5 19  1  0  0  0  0
  6  7  1  0  0  0  0
  6 27  1  0  0  0  0
  6 28  1  0  0  0  0
  7  8  1  0  0  0  0
  7 29  1  0  0  0  0
  7 30  1  0  0  0  0
  8  9  1  0  0  0  0
  8 14  1  0  0  0  0
  9 10  1  0  0  0  0
  9 31  1  0  0  0  0
  9 32  1  0  0  0  0
 10 11  2  0  0  0  0
 10 12  1  0  0  0  0
 12 13  1  0  0  0  0
 14 15  1  0  0  0  0
 14 33  1  0  0  0  0
 14 34  1  0  0  0  0
 15 16  2  0  0  0  0
 15 17  1  0  0  0  0
 17 18  1  0  0  0  0
 19 20  1  0  0  0  0
 19 35  1  0  0  0  0
 19 36  1  0  0  0  0
 20 21  2  0  0  0  0
 20 22  1  0  0  0  0
 22 23  1  0  0  0  0
M  END
$$$$

 OpenBabel12201709243D

 24 24  0  0  0  0  0  0  0  0999 V2000
    1.1945    0.0306    0.0311 C   0  0  0  0  0  0  0  0  0  0  0  0
    2.6367    0.0405    0.2147 N   0  0  0  0  0  0  0  0  0  0  0  0
    3.4144    1.0000   -0.5515 C   0  0  0  0  0  0  0  0  0  0  0  0
    3.1628   -1.0225    0.9444 C   0  0  0  0  0  0  0  0  0  0  0  0
    2.4182   -1.8820    1.4141 O   0  0  0  0  0  0  0  0  0  0  0  0
    4.5337   -1.0120    1.0925 N   0  0  0  0  0  0  0  0  0  0  0  0
    5.3012   -2.0310    1.7074 C   0  0  0  0  0  0  0  0  0  0  0  0
    4.8222   -3.3302    1.9088 C   0  0  0  0  0  0  0  0  0  0  0  0
    5.6062   -4.2888    2.5589 C   0  0  0  0  0  0  0  0  0  0  0  0
    6.8808   -3.9582    2.9981 C   0  0  0  0  0  0  0  0  0  0  0  0
    7.8360   -5.1309    3.8174 Cl  0  0  0  0  0  0  0  0  0  0  0  0
    7.3875   -2.6798    2.7753 C   0  0  0  0  0  0  0  0  0  0  0  0
    6.6017   -1.7201    2.1222 C   0  0  0  0  0  0  0  0  0  0  0  0
    0.8530    0.9035   -0.5304 H   0  0  0  0  0  0  0  0  0  0  0  0
    0.7142    0.0339    1.0156 H   0  0  0  0  0  0  0  0  0  0  0  0
    0.9038   -0.8840   -0.4984 H   0  0  0  0  0  0  0  0  0  0  0  0
    2.7643    1.6697   -1.1231 H   0  0  0  0  0  0  0  0  0  0  0  0
    4.0794    0.4678   -1.2373 H   0  0  0  0  0  0  0  0  0  0  0  0
    4.0118    1.6029    0.1392 H   0  0  0  0  0  0  0  0  0  0  0  0
    4.9875   -0.1233    0.9679 H   0  0  0  0  0  0  0  0  0  0  0  0
    3.8381   -3.6313    1.5658 H   0  0  0  0  0  0  0  0  0  0  0  0
    5.2036   -5.2850    2.7170 H   0  0  0  0  0  0  0  0  0  0  0  0
    8.3856   -2.4196    3.1157 H   0  0  0  0  0  0  0  0  0  0  0  0
    7.0151   -0.7255    1.9721 H   0  0  0  0  0  0  0  0  0  0  0  0
  1  2  1  0  0  0  0
  1 14  1  0  0  0  0
  1 15  1  0  0  0  0
  1 16  1  0  0  0  0
  2  3  1  0  0  0  0
  2  4  1  0  0  0  0
  3 17  1  0  0  0  0
  3 18  1  0  0  0  0
  3 19  1  0  0  0  0
  4  5  2  0  0  0  0
  4  6  1  0  0  0  0
  6  7  1  0  0  0  0
  6 20  1  0  0  0  0
  7  8  2  0  0  0  0
  7 13  1  0  0  0  0
  8  9  1  0  0  0  0
  8 21  1  0  0  0  0
  9 10  2  0  0  0  0
  9 22  1  0  0  0  0
 10 11  1  0  0  0  0
 10 12  1  0  0  0  0
 12 13  2  0  0  0  0
 12 23  1  0  0  0  0
 13 24  1  0  0  0  0
M  END
$$$$

 OpenBabel12201709243D

 17 17  0  0  0  0  0  0  0  0999 V2000
    1.6294    0.7039   -0.8257 C   0  0  0  0  0  0  0  0  0  0  0  0
    2.3829   -0.1020    0.0724 O   0  0  0  0  0  0  0  0  0  0  0  0
    3.0302    0.5506    1.0852 C   0  0  0  0  0  0  0  0  0  0  0  0
    2.9280    1.9132    1.3755 C   0  0  0  0  0  0  0  0  0  0  0  0
    3.6580    2.4657    2.4330 C   0  0  0  0  0  0  0  0  0  0  0  0
    4.4851    1.6492    3.1971 C   0  0  0  0  0  0  0  0  0  0  0  0
    5.2249    2.1534    4.2244 O   0  0  0  0  0  0  0  0  0  0  0  0
    4.5825    0.2901    2.9309 C   0  0  0  0  0  0  0  0  0  0  0  0
    3.8538   -0.2578    1.8739 C   0  0  0  0  0  0  0  0  0  0  0  0
    1.2456    0.0555   -1.6188 H   0  0  0  0  0  0  0  0  0  0  0  0
    2.2568    1.4683   -1.2971 H   0  0  0  0  0  0  0  0  0  0  0  0
    0.7710    1.1555   -0.3176 H   0  0  0  0  0  0  0  0  0  0  0  0
    2.2875    2.5729    0.7999 H   0  0  0  0  0  0  0  0  0  0  0  0
    3.5664    3.5266    2.6418 H   0  0  0  0  0  0  0  0  0  0  0  0
    5.1084    3.1171    4.2459 H   0  0  0  0  0  0  0  0  0  0  0  0
    5.2260   -0.3405    3.5373 H   0  0  0  0  0  0  0  0  0  0  0  0
    3.9334   -1.3207    1.6598 H   0  0  0  0  0  0  0  0  0  0  0  0
  1  2  1  0  0  0  0
  1 10  1  0  0  0  0
  1 11  1  0  0  0  0
  1 12  1  0  0  0  0
  2  3  1  0  0  0  0
  3  4  2  0  0  0  0
  3  9  1  0  0  0  0
  4  5  1  0  0  0  0
  4 13  1  0  0  0  0
  5  6  2  0  0  0  0
  5 14  1  0  0  0  0
  6  7  1  0  0  0  0
  6  8  1  0  0  0  0
  7 15  1  0  0  0  0
  8  9  2  0  0  0  0
  8 16  1  0  0  0  0
  9 17  1  0  0  0  0
M  END
$$$$

 OpenBabel12201709243D

  8  8  0  0  0  0  0  0  0  0999 V2000
   -0.0230    0.8529    0.0587 C   0  0  0  0  0  0  0  0  0  0  0  0
   -0.7480   -0.4557   -0.0825 C   0  0  0  0  0  0  0  0  0  0  0  0
    0.7066   -0.4092    0.0135 N   0  0  0  0  0  0  0  0  0  0  0  0
   -0.0494    1.3511    1.0198 H   0  0  0  0  0  0  0  0  0  0  0  0
    0.0635    1.4980   -0.8060 H   0  0  0  0  0  0  0  0  0  0  0  0
   -1.1655   -0.7201   -1.0455 H   0  0  0  0  0  0  0  0  0  0  0  0
   -1.2680   -0.8484    0.7823 H   0  0  0  0  0  0  0  0  0  0  0  0
    1.1388   -0.5499   -0.9019 H   0  0  0  0  0  0  0  0  0  0  0  0
  1  2  1  0  0  0  0
  1  3  1  0  0  0  0
  1  4  1  0  0  0  0
  1  5  1  0  0  0  0
  2  3  1  0  0  0  0
  2  6  1  0  0  0  0
  2  7  1  0  0  0  0
  3  8  1  0  0  0  0
M  END
$$$$

 OpenBabel12201709243D

 73 77  0  0  1  0  0  0  0  0999 V2000
    0.0028    0.4038   -3.4559 C   0  0  0  0  0  0  0  0  0  0  0  0
    1.3423    0.4238   -2.7259 C   0  0  3  0  0  0  0  0  0  0  0  0
    1.9983   -0.8466   -2.8646 O   0  0  0  0  0  0  0  0  0  0  0  0
    2.5707   -1.1008   -4.1461 C   0  0  3  0  0  0  0  0  0  0  0  0
    3.3069   -2.3197   -4.1019 O   0  0  0  0  0  0  0  0  0  0  0  0
    2.5021   -3.4683   -3.8310 C   0  0  0  0  0  0  0  0  0  0  0  0
    3.4643   -4.6684   -3.7745 C   0  0  3  0  0  0  0  0  0  0  0  0
    4.4959   -4.4830   -2.7564 O   0  0  0  0  0  0  0  0  0  0  0  0
    4.0040   -4.6786   -1.4139 C   0  0  3  0  0  0  0  0  0  0  0  0
    5.0081   -4.3582   -0.4184 O   0  0  0  0  0  0  0  0  0  0  0  0
    4.5187   -3.8128    0.7825 C   0  0  0  0  0  0  0  0  0  0  0  0
    5.3152   -3.2099    1.7016 C   0  0  0  0  0  0  0  0  0  0  0  0
    4.8432   -2.6743    2.9032 O   0  0  0  0  0  0  0  0  0  0  0  0
    3.5085   -2.6907    3.1914 C   0  0  0  0  0  0  0  0  0  0  0  0
    3.1029   -2.1231    4.4012 C   0  0  0  0  0  0  0  0  0  0  0  0
    1.7516   -2.1403    4.7430 C   0  0  0  0  0  0  0  0  0  0  0  0
    1.3031   -1.6316    5.9250 O   0  0  0  0  0  0  0  0  0  0  0  0
    0.8015   -2.6817    3.8884 C   0  0  0  0  0  0  0  0  0  0  0  0
    1.2114   -3.2324    2.6823 C   0  0  0  0  0  0  0  0  0  0  0  0
    0.2660   -3.7245    1.8282 O   0  0  0  0  0  0  0  0  0  0  0  0
    2.5730   -3.2611    2.3490 C   0  0  0  0  0  0  0  0  0  0  0  0
    3.0694   -3.9584    1.1664 C   0  0  0  0  0  0  0  0  0  0  0  0
    2.3096   -4.6927    0.5480 O   0  0  0  0  0  0  0  0  0  0  0  0
    6.8030   -3.0808    1.6278 C   0  0  0  0  0  0  0  0  0  0  0  0
    7.5236   -2.8350    0.4473 C   0  0  0  0  0  0  0  0  0  0  0  0
    8.9197   -2.6602    0.4692 C   0  0  0  0  0  0  0  0  0  0  0  0
    9.6011   -2.7180    1.6793 C   0  0  0  0  0  0  0  0  0  0  0  0
   10.9459   -2.4989    1.7801 O   0  0  0  0  0  0  0  0  0  0  0  0
    8.9093   -2.9729    2.8519 C   0  0  0  0  0  0  0  0  0  0  0  0
    9.5750   -3.0215    4.0437 O   0  0  0  0  0  0  0  0  0  0  0  0
    7.5316   -3.1481    2.8360 C   0  0  0  0  0  0  0  0  0  0  0  0
    3.5942   -6.1680   -1.2987 C   0  0  3  0  0  0  0  0  0  0  0  0
    4.6635   -7.0330   -1.7585 O   0  0  0  0  0  0  0  0  0  0  0  0
    2.3693   -6.3619   -2.1979 C   0  0  3  0  0  0  0  0  0  0  0  0
    1.9029   -7.7135   -2.1121 O   0  0  0  0  0  0  0  0  0  0  0  0
    2.7252   -6.0196   -3.6542 C   0  0  3  0  0  0  0  0  0  0  0  0
    3.5822   -7.0513   -4.1850 O   0  0  0  0  0  0  0  0  0  0  0  0
    3.6094   -0.0194   -4.4896 C   0  0  3  0  0  0  0  0  0  0  0  0
    4.6550   -0.0364   -3.4810 O   0  0  0  0  0  0  0  0  0  0  0  0
    2.9250    1.3455   -4.4906 C   0  0  3  0  0  0  0  0  0  0  0  0
    3.8841    2.3710   -4.7662 O   0  0  0  0  0  0  0  0  0  0  0  0
    2.2501    1.6019   -3.1342 C   0  0  3  0  0  0  0  0  0  0  0  0
    3.2639    1.7831   -2.1259 O   0  0  0  0  0  0  0  0  0  0  0  0
   -0.5989   -0.4436   -3.1078 H   0  0  0  0  0  0  0  0  0  0  0  0
    0.1184    0.2832   -4.5367 H   0  0  0  0  0  0  0  0  0  0  0  0
   -0.5573    1.3252   -3.2713 H   0  0  0  0  0  0  0  0  0  0  0  0
    1.1299    0.5161   -1.6541 H   0  0  0  0  0  0  0  0  0  0  0  0
    1.7971   -1.1684   -4.9197 H   0  0  0  0  0  0  0  0  0  0  0  0
    1.7692   -3.5965   -4.6364 H   0  0  0  0  0  0  0  0  0  0  0  0
    1.9619   -3.3331   -2.8897 H   0  0  0  0  0  0  0  0  0  0  0  0
    4.0243   -4.6707   -4.7178 H   0  0  0  0  0  0  0  0  0  0  0  0
    3.1763   -3.9749   -1.3145 H   0  0  0  0  0  0  0  0  0  0  0  0
    3.8438   -1.6875    5.0643 H   0  0  0  0  0  0  0  0  0  0  0  0
    2.0613   -1.3289    6.4514 H   0  0  0  0  0  0  0  0  0  0  0  0
   -0.2471   -2.6719    4.1750 H   0  0  0  0  0  0  0  0  0  0  0  0
   -0.5794   -3.8371    2.2925 H   0  0  0  0  0  0  0  0  0  0  0  0
    7.0111   -2.7549   -0.5102 H   0  0  0  0  0  0  0  0  0  0  0  0
    9.4575   -2.4882   -0.4613 H   0  0  0  0  0  0  0  0  0  0  0  0
   11.1834   -1.8393    1.1050 H   0  0  0  0  0  0  0  0  0  0  0  0
   10.5164   -2.9032    3.8052 H   0  0  0  0  0  0  0  0  0  0  0  0
    7.0332   -3.3231    3.7868 H   0  0  0  0  0  0  0  0  0  0  0  0
    3.3965   -6.5009   -0.2781 H   0  0  0  0  0  0  0  0  0  0  0  0
    5.4757   -6.7042   -1.3089 H   0  0  0  0  0  0  0  0  0  0  0  0
    1.5498   -5.7190   -1.8569 H   0  0  0  0  0  0  0  0  0  0  0  0
    2.6540   -8.2651   -2.4066 H   0  0  0  0  0  0  0  0  0  0  0  0
    1.8240   -6.0391   -4.2779 H   0  0  0  0  0  0  0  0  0  0  0  0
    4.3338   -7.1282   -3.5553 H   0  0  0  0  0  0  0  0  0  0  0  0
    4.1067   -0.2222   -5.4444 H   0  0  0  0  0  0  0  0  0  0  0  0
    4.8052   -0.9921   -3.3079 H   0  0  0  0  0  0  0  0  0  0  0  0
    2.1794    1.3794   -5.2925 H   0  0  0  0  0  0  0  0  0  0  0  0
    4.4994    2.3598   -4.0047 H   0  0  0  0  0  0  0  0  0  0  0  0
    1.6876    2.5409   -3.1611 H   0  0  0  0  0  0  0  0  0  0  0  0
    3.8827    1.0244   -2.2112 H   0  0  0  0  0  0  0  0  0  0  0  0
  1  2  1  0  0  0  0
  1 44  1  0  0  0  0
  1 45  1  0  0  0  0
  1 46  1  0  0  0  0
  2  3  1  0  0  0  0
  2 42  1  0  0  0  0
  2 47  1  0  0  0  0
  3  4  1  0  0  0  0
  4  5  1  0  0  0  0
  4 38  1  0  0  0  0
  4 48  1  0  0  0  0
  5  6  1  0  0  0  0
  6  7  1  0  0  0  0
  6 49  1  0  0  0  0
  6 50  1  0  0  0  0
  7  8  1  0  0  0  0
  7 36  1  0  0  0  0
  7 51  1  0  0  0  0
  8  9  1  0  0  0  0
  9 10  1  0  0  0  0
  9 32  1  0  0  0  0
  9 52  1  0  0  0  0
 10 11  1  0  0  0  0
 11 12  2  0  0  0  0
 11 22  1  0  0  0  0
 12 13  1  0  0  0  0
 12 24  1  0  0  0  0
 13 14  1  0  0  0  0
 14 15  2  0  0  0  0
 14 21  1  0  0  0  0
 15 16  1  0  0  0  0
 15 53  1  0  0  0  0
 16 17  1  0  0  0  0
 16 18  2  0  0  0  0
 17 54  1  0  0  0  0
 18 19  1  0  0  0  0
 18 55  1  0  0  0  0
 19 20  1  0  0  0  0
 19 21  2  0  0  0  0
 20 56  1  0  0  0  0
 21 22  1  0  0  0  0
 22 23  2  0  0  0  0
 24 25  2  0  0  0  0
 24 31  1  0  0  0  0
 25 26  1  0  0  0  0
 25 57  1  0  0  0  0
 26 27  2  0  0  0  0
 26 58  1  0  0  0  0
 27 28  1  0  0  0  0
 27 29  1  0  0  0  0
 28 59  1  0  0  0  0
 29 30  1  0  0  0  0
 29 31  2  0  0  0  0
 30 60  1  0  0  0  0
 31 61  1  0  0  0  0
 32 33  1  0  0  0  0
 32 34  1  0  0  0  0
 32 62  1  0  0  0  0
 33 63  1  0  0  0  0
 34 35  1  0  0  0  0
 34 36  1  0  0  0  0
 34 64  1  0  0  0  0
 35 65  1  0  0  0  0
 36 37  1  0  0  0  0
 36 66  1  0  0  0  0
 37 67  1  0  0  0  0
 38 39  1  0  0  0  0
 38 40  1  0  0  0  0
 38 68  1  0  0  0  0
 39 69  1  0  0  0  0
 40 41  1  0  0  0  0
 40 42  1  0  0  0  0
 40 70  1  0  0  0  0
 41 71  1  0  0  0  0
 42 43  1  0  0  0  0
 42 72  1  0  0  0  0
 43 73  1  0  0  0  0
M  END
$$$$

 OpenBabel12201709243D

 31 31  0  0  1  0  0  0  0  0999 V2000
    1.2242   -0.1296    0.7817 C   0  0  0  0  0  0  0  0  0  0  0  0
    2.4052   -0.1696   -0.1851 C   0  0  0  0  0  0  0  0  0  0  0  0
    1.9703   -0.8874   -1.4702 C   0  0  0  0  0  0  0  0  0  0  0  0
    3.1166    1.1858   -0.4960 C   0  0  3  0  0  0  0  0  0  0  0  0
    2.2635    2.2614   -1.2013 C   0  0  0  0  0  0  0  0  0  0  0  0
    1.4252    3.1447   -0.2805 C   0  0  0  0  0  0  0  0  0  0  0  0
    2.1996    3.7330    0.9037 C   0  0  3  0  0  0  0  0  0  0  0  0
    3.0303    4.9499    0.4969 C   0  0  0  0  0  0  0  0  0  0  0  0
    3.0301    2.6687    1.6307 C   0  0  0  0  0  0  0  0  0  0  0  0
    3.8686    1.7701    0.7203 C   0  0  3  0  0  0  0  0  0  0  0  0
    5.0108    2.5107    0.2739 O   0  0  0  0  0  0  0  0  0  0  0  0
    0.8095   -1.1358    0.9160 H   0  0  0  0  0  0  0  0  0  0  0  0
    0.4108    0.4988    0.4152 H   0  0  0  0  0  0  0  0  0  0  0  0
    1.5239    0.2081    1.7744 H   0  0  0  0  0  0  0  0  0  0  0  0
    3.1619   -0.8188    0.2782 H   0  0  0  0  0  0  0  0  0  0  0  0
    1.1559   -0.3619   -1.9772 H   0  0  0  0  0  0  0  0  0  0  0  0
    1.6155   -1.8989   -1.2415 H   0  0  0  0  0  0  0  0  0  0  0  0
    2.8084   -0.9853   -2.1677 H   0  0  0  0  0  0  0  0  0  0  0  0
    3.8934    0.9201   -1.2309 H   0  0  0  0  0  0  0  0  0  0  0  0
    1.6132    1.8107   -1.9577 H   0  0  0  0  0  0  0  0  0  0  0  0
    2.9409    2.9166   -1.7653 H   0  0  0  0  0  0  0  0  0  0  0  0
    0.5771    2.5716    0.1037 H   0  0  0  0  0  0  0  0  0  0  0  0
    0.9817    3.9553   -0.8734 H   0  0  0  0  0  0  0  0  0  0  0  0
    1.4573    4.1077    1.6246 H   0  0  0  0  0  0  0  0  0  0  0  0
    3.7076    4.7386   -0.3331 H   0  0  0  0  0  0  0  0  0  0  0  0
    3.6262    5.3137    1.3409 H   0  0  0  0  0  0  0  0  0  0  0  0
    2.3746    5.7703    0.1826 H   0  0  0  0  0  0  0  0  0  0  0  0
    2.3427    2.0507    2.2139 H   0  0  0  0  0  0  0  0  0  0  0  0
    3.6821    3.1594    2.3633 H   0  0  0  0  0  0  0  0  0  0  0  0
    4.2804    0.9550    1.3251 H   0  0  0  0  0  0  0  0  0  0  0  0
    4.8060    2.9258   -0.5801 H   0  0  0  0  0  0  0  0  0  0  0  0
  1  2  1  0  0  0  0
  1 12  1  0  0  0  0
  1 13  1  0  0  0  0
  1 14  1  0  0  0  0
  2  3  1  0  0  0  0
  2  4  1  0  0  0  0
  2 15  1  0  0  0  0
  3 16  1  0  0  0  0
  3 17  1  0  0  0  0
  3 18  1  0  0  0  0
  4  5  1  0  0  0  0
  4 10  1  0  0  0  0
  4 19  1  0  0  0  0
  5  6  1  0  0  0  0
  5 20  1  0  0  0  0
  5 21  1  0  0  0  0
  6  7  1  0  0  0  0
  6 22  1  0  0  0  0
  6 23  1  0  0  0  0
  7  8  1  0  0  0  0
  7  9  1  0  0  0  0
  7 24  1  0  0  0  0
  8 25  1  0  0  0  0
  8 26  1  0  0  0  0
  8 27  1  0  0  0  0
  9 10  1  0  0  0  0
  9 28  1  0  0  0  0
  9 29  1  0  0  0  0
 10 11  1  0  0  0  0
 10 30  1  0  0  0  0
 11 31  1  0  0  0  0
M  END
$$$$

 OpenBabel12201709243D

 19 19  0  0  0  0  0  0  0  0999 V2000
    0.8538   -0.0218   -0.0553 C   0  0  0  0  0  0  0  0  0  0  0  0
    2.3562   -0.0040    0.0786 C   0  0  0  0  0  0  0  0  0  0  0  0
    3.0797    1.2050    0.2064 C   0  0  0  0  0  0  0  0  0  0  0  0
    2.4814    2.4673    0.0336 N   0  0  0  0  0  0  0  0  0  0  0  0
    4.4788    1.1575    0.2944 C   0  0  0  0  0  0  0  0  0  0  0  0
    5.1535   -0.0563    0.3753 C   0  0  0  0  0  0  0  0  0  0  0  0
    4.4396   -1.2456    0.2899 C   0  0  0  0  0  0  0  0  0  0  0  0
    3.0571   -1.2355    0.0675 C   0  0  0  0  0  0  0  0  0  0  0  0
    2.3802   -2.4717    0.0500 N   0  0  0  0  0  0  0  0  0  0  0  0
    0.3902    0.9629    0.0222 H   0  0  0  0  0  0  0  0  0  0  0  0
    0.4166   -0.6328    0.7425 H   0  0  0  0  0  0  0  0  0  0  0  0
    0.5678   -0.4366   -1.0271 H   0  0  0  0  0  0  0  0  0  0  0  0
    1.5220    2.5211    0.3531 H   0  0  0  0  0  0  0  0  0  0  0  0
    3.0360    3.2297    0.4098 H   0  0  0  0  0  0  0  0  0  0  0  0
    5.0554    2.0783    0.3254 H   0  0  0  0  0  0  0  0  0  0  0  0
    6.2322   -0.0741    0.4994 H   0  0  0  0  0  0  0  0  0  0  0  0
    4.9749   -2.1878    0.3705 H   0  0  0  0  0  0  0  0  0  0  0  0
    2.9662   -3.2392   -0.2644 H   0  0  0  0  0  0  0  0  0  0  0  0
    1.5041   -2.4428   -0.4607 H   0  0  0  0  0  0  0  0  0  0  0  0
  1  2  1  0  0  0  0
  1 10  1  0  0  0  0
  1 11  1  0  0  0  0
  1 12  1  0  0  0  0
  2  3  2  0  0  0  0
  2  8  1  0  0  0  0
  3  4  1  0  0  0  0
  3  5  1  0  0  0  0
  4 13  1  0  0  0  0
  4 14  1  0  0  0  0
  5  6  2  0  0  0  0
  5 15  1  0  0  0  0
  6  7  1  0  0  0  0
  6 16  1  0  0  0  0
  7  8  2  0  0  0  0
  7 17  1  0  0  0  0
  8  9  1  0  0  0  0
  9 18  1  0  0  0  0
  9 19  1  0  0  0  0
M  END
$$$$

 OpenBabel12201709243D

 25 26  0  0  0  0  0  0  0  0999 V2000
    2.3337    1.0304   -0.2401 O   0  0  0  0  0  0  0  0  0  0  0  0
    2.2486   -0.1833   -0.0259 N   0  0  0  0  0  0  0  0  0  0  0  0
    2.9694   -0.6058    1.0730 C   0  0  0  0  0  0  0  0  0  0  0  0
    2.4995   -1.7109    1.7824 C   0  0  0  0  0  0  0  0  0  0  0  0
    3.2121   -2.2016    2.8789 C   0  0  0  0  0  0  0  0  0  0  0  0
    4.4297   -1.6275    3.2753 C   0  0  0  0  0  0  0  0  0  0  0  0
    5.1635   -2.1639    4.3503 N   0  0  0  0  0  0  0  0  0  0  0  0
    5.1975   -3.5185    4.7448 C   0  0  0  0  0  0  0  0  0  0  0  0
    5.1360   -4.5583    3.8057 C   0  0  0  0  0  0  0  0  0  0  0  0
    5.0614   -5.8894    4.2135 C   0  0  0  0  0  0  0  0  0  0  0  0
    5.0726   -6.1976    5.5701 C   0  0  0  0  0  0  0  0  0  0  0  0
    5.1915   -5.1773    6.5139 C   0  0  0  0  0  0  0  0  0  0  0  0
    5.2690   -3.8435    6.1018 C   0  0  0  0  0  0  0  0  0  0  0  0
    4.8865   -0.5034    2.5835 C   0  0  0  0  0  0  0  0  0  0  0  0
    4.1673   -0.0028    1.4870 C   0  0  0  0  0  0  0  0  0  0  0  0
    1.5733   -2.2030    1.4931 H   0  0  0  0  0  0  0  0  0  0  0  0
    2.8042   -3.0485    3.4272 H   0  0  0  0  0  0  0  0  0  0  0  0
    6.0125   -1.6650    4.5941 H   0  0  0  0  0  0  0  0  0  0  0  0
    5.1302   -4.3340    2.7420 H   0  0  0  0  0  0  0  0  0  0  0  0
    4.9812   -6.6782    3.4706 H   0  0  0  0  0  0  0  0  0  0  0  0
    4.9873   -7.2323    5.8917 H   0  0  0  0  0  0  0  0  0  0  0  0
    5.2020   -5.4189    7.5734 H   0  0  0  0  0  0  0  0  0  0  0  0
    5.3275   -3.0572    6.8495 H   0  0  0  0  0  0  0  0  0  0  0  0
    5.8132   -0.0142    2.8715 H   0  0  0  0  0  0  0  0  0  0  0  0
    4.5561    0.8597    0.9508 H   0  0  0  0  0  0  0  0  0  0  0  0
  1  2  2  0  0  0  0
  2  3  1  0  0  0  0
  3  4  2  0  0  0  0
  3 15  1  0  0  0  0
  4  5  1  0  0  0  0
  4 16  1  0  0  0  0
  5  6  2  0  0  0  0
  5 17  1  0  0  0  0
  6  7  1  0  0  0  0
  6 14  1  0  0  0  0
  7  8  1  0  0  0  0
  7 18  1  0  0  0  0
  8  9  2  0  0  0  0
  8 13  1  0  0  0  0
  9 10  1  0  0  0  0
  9 19  1  0  0  0  0
 10 11  2  0  0  0  0
 10 20  1  0  0  0  0
 11 12  1  0  0  0  0
 11 21  1  0  0  0  0
 12 13  2  0  0  0  0
 12 22  1  0  0  0  0
 13 23  1  0  0  0  0
 14 15  2  0  0  0  0
 14 24  1  0  0  0  0
 15 25  1  0  0  0  0
M  END
$$$$

 OpenBabel12201709243D

 27 27  0  0  0  0  0  0  0  0999 V2000
    3.4185    5.3705    0.8029 O   0  0  0  0  0  0  0  0  0  0  0  0
    2.8126    4.8388    2.2000 S   0  0  0  0  0  0  0  0  0  0  0  0
    3.4892    5.6012    3.2338 O   0  0  0  0  0  0  0  0  0  0  0  0
    1.3735    4.8801    2.0704 O   0  0  0  0  0  0  0  0  0  0  0  0
    3.3083    3.2662    2.2855 O   0  0  0  0  0  0  0  0  0  0  0  0
    4.7669    3.1103    2.3785 N   0  0  0  0  0  0  0  0  0  0  0  0
    5.1362    1.7288    2.5446 N   0  0  0  0  0  0  0  0  0  0  0  0
    6.6096    1.6316    2.5322 C   0  0  0  0  0  0  0  0  0  0  0  0
    7.2599    2.3539    3.7230 C   0  0  0  0  0  0  0  0  0  0  0  0
    8.7622    2.2452    3.7122 C   0  0  0  0  0  0  0  0  0  0  0  0
    9.5366    3.1947    3.0307 C   0  0  0  0  0  0  0  0  0  0  0  0
   10.9278    3.0979    3.0279 C   0  0  0  0  0  0  0  0  0  0  0  0
   11.5540    2.0502    3.7005 C   0  0  0  0  0  0  0  0  0  0  0  0
   10.7907    1.0992    4.3760 C   0  0  0  0  0  0  0  0  0  0  0  0
    9.3996    1.1941    4.3808 C   0  0  0  0  0  0  0  0  0  0  0  0
    3.4587    6.3455    0.8475 H   0  0  0  0  0  0  0  0  0  0  0  0
    4.9388    3.6285    3.2522 H   0  0  0  0  0  0  0  0  0  0  0  0
    4.7814    1.1774    1.7568 H   0  0  0  0  0  0  0  0  0  0  0  0
    7.0044    2.0110    1.5804 H   0  0  0  0  0  0  0  0  0  0  0  0
    6.8734    0.5671    2.5718 H   0  0  0  0  0  0  0  0  0  0  0  0
    6.8672    1.9526    4.6660 H   0  0  0  0  0  0  0  0  0  0  0  0
    7.0044    3.4208    3.7242 H   0  0  0  0  0  0  0  0  0  0  0  0
    9.0600    4.0199    2.5056 H   0  0  0  0  0  0  0  0  0  0  0  0
   11.5228    3.8415    2.5043 H   0  0  0  0  0  0  0  0  0  0  0  0
   12.6380    1.9757    3.7002 H   0  0  0  0  0  0  0  0  0  0  0  0
   11.2789    0.2842    4.9033 H   0  0  0  0  0  0  0  0  0  0  0  0
    8.8147    0.4494    4.9157 H   0  0  0  0  0  0  0  0  0  0  0  0
  1  2  1  0  0  0  0
  1 16  1  0  0  0  0
  2  3  2  0  0  0  0
  2  4  2  0  0  0  0
  2  5  1  0  0  0  0
  5  6  1  0  0  0  0
  6  7  1  0  0  0  0
  6 17  1  0  0  0  0
  7  8  1  0  0  0  0
  7 18  1  0  0  0  0
  8  9  1  0  0  0  0
  8 19  1  0  0  0  0
  8 20  1  0  0  0  0
  9 10  1  0  0  0  0
  9 21  1  0  0  0  0
  9 22  1  0  0  0  0
 10 11  2  0  0  0  0
 10 15  1  0  0  0  0
 11 12  1  0  0  0  0
 11 23  1  0  0  0  0
 12 13  2  0  0  0  0
 12 24  1  0  0  0  0
 13 14  1  0  0  0  0
 13 25  1  0  0  0  0
 14 15  2  0  0  0  0
 14 26  1  0  0  0  0
 15 27  1  0  0  0  0
M  END
$$$$

 OpenBabel12201709243D

  4  3  0  0  0  0  0  0  0  0999 V2000
    1.0855    0.1249    0.0537 Ca  0  0  0  0  0  0  0  0  0  0  0  0
    3.2258    0.1503    0.0474 N   0  0  0  0  0  0  0  0  0  0  0  0
    3.9041    1.3232   -0.2412 C   0  0  0  0  0  0  0  0  0  0  0  0
    4.4706    2.3029   -0.4823 N   0  0  0  0  0  0  0  0  0  0  0  0
  1  2  2  0  0  0  0
  2  3  1  0  0  0  0
  3  4  3  0  0  0  0
M  END
$$$$

 OpenBabel12201709243D

 26 27  0  0  0  0  0  0  0  0999 V2000
    1.0503   -0.0541    0.3611 N   0  0  0  0  0  0  0  0  0  0  0  0
    2.4230   -0.0534    0.0698 C   0  0  0  0  0  0  0  0  0  0  0  0
    3.0650    1.1469   -0.2272 C   0  0  0  0  0  0  0  0  0  0  0  0
    4.4468    1.1909   -0.4948 C   0  0  0  0  0  0  0  0  0  0  0  0
    5.0190    2.7291   -1.0563 Cl  0  0  0  0  0  0  0  0  0  0  0  0
    5.2763    0.0471   -0.3460 C   0  0  0  0  0  0  0  0  0  0  0  0
    4.6238   -1.1178    0.1145 C   0  0  0  0  0  0  0  0  0  0  0  0
    3.2329   -1.1776    0.2918 C   0  0  0  0  0  0  0  0  0  0  0  0
    2.5184   -2.7028    0.6976 Cl  0  0  0  0  0  0  0  0  0  0  0  0
    6.7437    0.0183   -0.6728 C   0  0  0  0  0  0  0  0  0  0  0  0
    7.5785    1.0892   -0.2862 C   0  0  0  0  0  0  0  0  0  0  0  0
    8.9195    1.1805   -0.6924 C   0  0  0  0  0  0  0  0  0  0  0  0
    9.8040    2.6135   -0.2929 Cl  0  0  0  0  0  0  0  0  0  0  0  0
    9.5138    0.1719   -1.4565 C   0  0  0  0  0  0  0  0  0  0  0  0
   10.8831    0.1763   -1.7755 N   0  0  0  0  0  0  0  0  0  0  0  0
    8.7552   -0.9660   -1.7165 C   0  0  0  0  0  0  0  0  0  0  0  0
    7.3858   -1.0248   -1.3874 C   0  0  0  0  0  0  0  0  0  0  0  0
    6.5664   -2.4376   -1.9746 Cl  0  0  0  0  0  0  0  0  0  0  0  0
    0.5214    0.6478   -0.1450 H   0  0  0  0  0  0  0  0  0  0  0  0
    0.6298   -0.9793    0.2787 H   0  0  0  0  0  0  0  0  0  0  0  0
    2.4744    2.0560   -0.3096 H   0  0  0  0  0  0  0  0  0  0  0  0
    5.1962   -2.0223    0.3209 H   0  0  0  0  0  0  0  0  0  0  0  0
    7.1843    1.8993    0.3238 H   0  0  0  0  0  0  0  0  0  0  0  0
   11.2702    1.1185   -1.8202 H   0  0  0  0  0  0  0  0  0  0  0  0
   11.1292   -0.3790   -2.5895 H   0  0  0  0  0  0  0  0  0  0  0  0
    9.2210   -1.8120   -2.2183 H   0  0  0  0  0  0  0  0  0  0  0  0
  1  2  1  0  0  0  0
  1 19  1  0  0  0  0
  1 20  1  0  0  0  0
  2  3  2  0  0  0  0
  2  8  1  0  0  0  0
  3  4  1  0  0  0  0
  3 21  1  0  0  0  0
  4  5  1  0  0  0  0
  4  6  2  0  0  0  0
  6  7  1  0  0  0  0
  6 10  1  0  0  0  0
  7  8  2  0  0  0  0
  7 22  1  0  0  0  0
  8  9  1  0  0  0  0
 10 11  2  0  0  0  0
 10 17  1  0  0  0  0
 11 12  1  0  0  0  0
 11 23  1  0  0  0  0
 12 13  1  0  0  0  0
 12 14  2  0  0  0  0
 14 15  1  0  0  0  0
 14 16  1  0  0  0  0
 15 24  1  0  0  0  0
 15 25  1  0  0  0  0
 16 17  2  0  0  0  0
 16 26  1  0  0  0  0
 17 18  1  0  0  0  0
M  END
$$$$

 OpenBabel12201709243D

 41 41  0  0  0  0  0  0  0  0999 V2000
    0.6969   -0.0463   -0.8102 C   0  0  0  0  0  0  0  0  0  0  0  0
    2.1623   -0.1290   -0.3940 C   0  0  0  0  0  0  0  0  0  0  0  0
    2.9754    1.0646   -0.8871 C   0  0  0  0  0  0  0  0  0  0  0  0
    4.4287    1.2157   -0.5813 N   0  0  0  0  0  0  0  0  0  0  0  0
    5.1511    0.1976    0.2419 C   0  0  0  0  0  0  0  0  0  0  0  0
    4.7593   -1.2828    0.1679 C   0  0  0  0  0  0  0  0  0  0  0  0
    5.7342   -2.1916    0.9120 C   0  0  0  0  0  0  0  0  0  0  0  0
    5.0707    2.4542   -0.9494 C   0  0  0  0  0  0  0  0  0  0  0  0
    4.4607    3.5065   -1.7289 C   0  0  0  0  0  0  0  0  0  0  0  0
    5.1574    4.6584   -2.2089 C   0  0  0  0  0  0  0  0  0  0  0  0
    6.4761    4.9111   -1.8858 C   0  0  0  0  0  0  0  0  0  0  0  0
    7.0978    3.9822   -1.0718 C   0  0  0  0  0  0  0  0  0  0  0  0
    6.4266    2.8042   -0.6324 C   0  0  0  0  0  0  0  0  0  0  0  0
    7.3178    2.0228    0.2169 N   0  0  0  0  0  0  0  0  0  0  0  0
    7.1147    1.9798    1.4104 O   0  0  0  0  0  0  0  0  0  0  0  0
    8.5457    1.5643   -0.2846 O   0  0  0  0  0  0  0  0  0  0  0  0
    7.2118    6.1297   -2.3786 C   0  0  0  0  0  0  0  0  0  0  0  0
    6.4302    6.9709   -3.1086 F   0  0  0  0  0  0  0  0  0  0  0  0
    7.7174    6.8747   -1.3591 F   0  0  0  0  0  0  0  0  0  0  0  0
    8.2679    5.8057   -3.1716 F   0  0  0  0  0  0  0  0  0  0  0  0
    3.0566    3.6048   -2.1051 N   0  0  0  0  0  0  0  0  0  0  0  0
    2.6371    2.9279   -3.0138 O   0  0  0  0  0  0  0  0  0  0  0  0
    2.3055    4.7091   -1.7002 O   0  0  0  0  0  0  0  0  0  0  0  0
    0.1860   -0.9815   -0.5552 H   0  0  0  0  0  0  0  0  0  0  0  0
    0.6030    0.1005   -1.8910 H   0  0  0  0  0  0  0  0  0  0  0  0
    0.1841    0.7726   -0.2984 H   0  0  0  0  0  0  0  0  0  0  0  0
    2.5328   -1.0479   -0.8552 H   0  0  0  0  0  0  0  0  0  0  0  0
    2.2035   -0.2069    0.6970 H   0  0  0  0  0  0  0  0  0  0  0  0
    2.4518    1.9434   -0.4968 H   0  0  0  0  0  0  0  0  0  0  0  0
    2.8988    1.0038   -1.9737 H   0  0  0  0  0  0  0  0  0  0  0  0
    5.1252    0.5120    1.2901 H   0  0  0  0  0  0  0  0  0  0  0  0
    6.1801    0.1553   -0.1107 H   0  0  0  0  0  0  0  0  0  0  0  0
    4.6916   -1.6094   -0.8771 H   0  0  0  0  0  0  0  0  0  0  0  0
    3.8098   -1.4710    0.6662 H   0  0  0  0  0  0  0  0  0  0  0  0
    6.7358   -2.1568    0.4759 H   0  0  0  0  0  0  0  0  0  0  0  0
    5.3791   -3.2281    0.8700 H   0  0  0  0  0  0  0  0  0  0  0  0
    5.7974   -1.9074    1.9678 H   0  0  0  0  0  0  0  0  0  0  0  0
    4.6299    5.3736   -2.8484 H   0  0  0  0  0  0  0  0  0  0  0  0
    8.1245    4.1719   -0.7521 H   0  0  0  0  0  0  0  0  0  0  0  0
    8.5009    1.8227   -1.2169 H   0  0  0  0  0  0  0  0  0  0  0  0
    2.9286    5.2125   -1.1572 H   0  0  0  0  0  0  0  0  0  0  0  0
  1  2  1  0  0  0  0
  1 24  1  0  0  0  0
  1 25  1  0  0  0  0
  1 26  1  0  0  0  0
  2  3  1  0  0  0  0
  2 27  1  0  0  0  0
  2 28  1  0  0  0  0
  3  4  1  0  0  0  0
  3 29  1  0  0  0  0
  3 30  1  0  0  0  0
  4  5  1  0  0  0  0
  4  8  1  0  0  0  0
  5  6  1  0  0  0  0
  5 31  1  0  0  0  0
  5 32  1  0  0  0  0
  6  7  1  0  0  0  0
  6 33  1  0  0  0  0
  6 34  1  0  0  0  0
  7 35  1  0  0  0  0
  7 36  1  0  0  0  0
  7 37  1  0  0  0  0
  8  9  2  0  0  0  0
  8 13  1  0  0  0  0
  9 10  1  0  0  0  0
  9 21  1  0  0  0  0
 10 11  2  0  0  0  0
 10 38  1  0  0  0  0
 11 12  1  0  0  0  0
 11 17  1  0  0  0  0
 12 13  2  0  0  0  0
 12 39  1  0  0  0  0
 13 14  1  0  0  0  0
 14 15  2  0  0  0  0
 14 16  1  0  0  0  0
 16 40  1  0  0  0  0
 17 18  1  0  0  0  0
 17 19  1  0  0  0  0
 17 20  1  0  0  0  0
 21 22  2  0  0  0  0
 21 23  1  0  0  0  0
 23 41  1  0  0  0  0
M  END
$$$$

 OpenBabel12201709243D

 23 22  0  0  0  0  0  0  0  0999 V2000
    2.0254    0.6667   -1.1468 C   0  0  0  0  0  0  0  0  0  0  0  0
    2.4214   -0.0762    0.0481 N   0  0  0  0  0  0  0  0  0  0  0  0
    1.3044   -0.2217    0.9792 C   0  0  0  0  0  0  0  0  0  0  0  0
    2.9750   -1.3228   -0.2974 N   0  0  0  0  0  0  0  0  0  0  0  0
    4.3544   -1.4680   -0.3716 C   0  0  0  0  0  0  0  0  0  0  0  0
    5.1742   -0.5640   -0.2380 O   0  0  0  0  0  0  0  0  0  0  0  0
    4.7682   -2.8881   -0.6860 C   0  0  0  0  0  0  0  0  0  0  0  0
    6.2114   -3.1262   -0.2568 C   0  0  0  0  0  0  0  0  0  0  0  0
    6.6331   -4.5477   -0.5057 C   0  0  0  0  0  0  0  0  0  0  0  0
    5.9322   -5.4096   -1.0135 O   0  0  0  0  0  0  0  0  0  0  0  0
    7.9001   -4.7871   -0.0973 O   0  0  0  0  0  0  0  0  0  0  0  0
    1.6491    1.6600   -0.8780 H   0  0  0  0  0  0  0  0  0  0  0  0
    1.2490    0.1417   -1.7157 H   0  0  0  0  0  0  0  0  0  0  0  0
    2.8868    0.8223   -1.8058 H   0  0  0  0  0  0  0  0  0  0  0  0
    0.9160    0.7599    1.2743 H   0  0  0  0  0  0  0  0  0  0  0  0
    1.6345   -0.7205    1.8973 H   0  0  0  0  0  0  0  0  0  0  0  0
    0.4829   -0.8045    0.5482 H   0  0  0  0  0  0  0  0  0  0  0  0
    2.3641   -2.1215   -0.4409 H   0  0  0  0  0  0  0  0  0  0  0  0
    4.6572   -3.0469   -1.7657 H   0  0  0  0  0  0  0  0  0  0  0  0
    4.1007   -3.5895   -0.1725 H   0  0  0  0  0  0  0  0  0  0  0  0
    6.3138   -2.9208    0.8151 H   0  0  0  0  0  0  0  0  0  0  0  0
    6.8882   -2.4641   -0.8094 H   0  0  0  0  0  0  0  0  0  0  0  0
    8.3427   -4.0053    0.2856 H   0  0  0  0  0  0  0  0  0  0  0  0
  1  2  1  0  0  0  0
  1 12  1  0  0  0  0
  1 13  1  0  0  0  0
  1 14  1  0  0  0  0
  2  3  1  0  0  0  0
  2  4  1  0  0  0  0
  3 15  1  0  0  0  0
  3 16  1  0  0  0  0
  3 17  1  0  0  0  0
  4  5  1  0  0  0  0
  4 18  1  0  0  0  0
  5  6  2  0  0  0  0
  5  7  1  0  0  0  0
  7  8  1  0  0  0  0
  7 19  1  0  0  0  0
  7 20  1  0  0  0  0
  8  9  1  0  0  0  0
  8 21  1  0  0  0  0
  8 22  1  0  0  0  0
  9 10  2  0  0  0  0
  9 11  1  0  0  0  0
 11 23  1  0  0  0  0
M  END
$$$$

 OpenBabel12201709243D

 70 75  0  0  0  0  0  0  0  0999 V2000
    5.0781   -2.1341   -0.2328 O   0  0  0  0  0  0  0  0  0  0  0  0
    4.3360   -1.0107   -0.2431 C   0  0  0  0  0  0  0  0  0  0  0  0
    4.8510    0.1753   -0.8117 C   0  0  0  0  0  0  0  0  0  0  0  0
    4.0544    1.3228   -0.9137 C   0  0  0  0  0  0  0  0  0  0  0  0
    2.7744    1.3233   -0.3348 C   0  0  0  0  0  0  0  0  0  0  0  0
    1.8609    2.4054   -0.4882 N   0  0  0  0  0  0  0  0  0  0  0  0
    0.5130    2.2535   -0.1379 N   0  0  0  0  0  0  0  0  0  0  0  0
   -0.1604    3.1607    0.4954 C   0  0  0  0  0  0  0  0  0  0  0  0
   -1.6123    2.9867    0.8392 C   0  0  0  0  0  0  0  0  0  0  0  0
   -2.2820    4.3031    1.1775 C   0  0  0  0  0  0  0  0  0  0  0  0
   -1.5972    5.4705    1.2600 C   0  0  0  0  0  0  0  0  0  0  0  0
   -0.1084    5.4697    1.2465 C   0  0  0  0  0  0  0  0  0  0  0  0
    0.5337    4.3192    1.0086 C   0  0  0  0  0  0  0  0  0  0  0  0
    1.8086    4.0831    1.3494 O   0  0  0  0  0  0  0  0  0  0  0  0
    1.8423    2.2281    2.0883 Cu  0  0  0  0  0  0  0  0  0  0  0  0
    1.3761    0.4618    1.2521 O   0  0  0  0  0  0  0  0  0  0  0  0
    2.3589    0.2155    0.3871 C   0  0  0  0  0  0  0  0  0  0  0  0
    3.0455   -1.0137    0.3259 C   0  0  0  0  0  0  0  0  0  0  0  0
    2.4454   -2.2521    0.7222 N   0  0  0  0  0  0  0  0  0  0  0  0
    1.1957   -2.3824    0.6757 N   0  0  0  0  0  0  0  0  0  0  0  0
    0.5202   -3.6473    0.6544 C   0  0  0  0  0  0  0  0  0  0  0  0
    1.1999   -4.8729    0.6239 C   0  0  0  0  0  0  0  0  0  0  0  0
    0.4961   -6.0838    0.5212 C   0  0  0  0  0  0  0  0  0  0  0  0
   -0.9228   -6.1263    0.4372 C   0  0  0  0  0  0  0  0  0  0  0  0
   -1.5874   -4.8770    0.4733 C   0  0  0  0  0  0  0  0  0  0  0  0
   -0.8812   -3.6684    0.5763 C   0  0  0  0  0  0  0  0  0  0  0  0
   -1.6818   -7.4384    0.2611 C   0  0  0  0  0  0  0  0  0  0  0  0
   -1.0045   -8.6848    0.2244 C   0  0  0  0  0  0  0  0  0  0  0  0
   -1.6845   -9.8863   -0.0018 C   0  0  0  0  0  0  0  0  0  0  0  0
   -3.0690   -9.8930   -0.1993 C   0  0  0  0  0  0  0  0  0  0  0  0
   -3.7775  -11.1023   -0.4528 N   0  0  0  0  0  0  0  0  0  0  0  0
   -3.1866  -12.1950   -0.5938 N   0  0  0  0  0  0  0  0  0  0  0  0
   -3.8812  -13.4153   -0.8025 C   0  0  0  0  0  0  0  0  0  0  0  0
   -5.2771  -13.4568   -0.9349 C   0  0  0  0  0  0  0  0  0  0  0  0
   -5.9324  -14.6787   -1.0845 C   0  0  0  0  0  0  0  0  0  0  0  0
   -5.2092  -15.8805   -1.1021 C   0  0  0  0  0  0  0  0  0  0  0  0
   -5.8697  -17.0522   -1.2194 O   0  0  0  0  0  0  0  0  0  0  0  0
   -3.7992  -15.8555   -0.9856 C   0  0  0  0  0  0  0  0  0  0  0  0
   -3.1512  -14.6118   -0.8427 C   0  0  0  0  0  0  0  0  0  0  0  0
   -2.9902  -17.1086   -0.9836 C   0  0  0  0  0  0  0  0  0  0  0  0
   -3.5250  -18.2017   -1.0844 O   0  0  0  0  0  0  0  0  0  0  0  0
   -1.6507  -17.0573   -0.8446 O   0  0  0  0  0  0  0  0  0  0  0  0
   -0.6116  -18.7824   -0.7595 Na  0  0  0  0  0  0  0  0  0  0  0  0
   -3.7668   -8.6889   -0.1457 C   0  0  0  0  0  0  0  0  0  0  0  0
   -3.0882   -7.4750    0.0857 C   0  0  0  0  0  0  0  0  0  0  0  0
   -4.0248    4.2324    1.6072 S   0  0  0  0  0  0  0  0  0  0  0  0
   -4.4833    5.4171    2.4719 O   0  0  0  0  0  0  0  0  0  0  0  0
   -4.9620    4.3260    0.3965 O   0  0  0  0  0  0  0  0  0  0  0  0
   -4.5376    2.8397    2.4777 O   0  0  0  0  0  0  0  0  0  0  0  0
   -3.3967    2.7941    4.1782 Na  0  0  0  0  0  0  0  0  0  0  0  0
    5.9953   -2.1457   -0.5480 H   0  0  0  0  0  0  0  0  0  0  0  0
    5.8573    0.1932   -1.2226 H   0  0  0  0  0  0  0  0  0  0  0  0
    4.4259    2.2021   -1.4240 H   0  0  0  0  0  0  0  0  0  0  0  0
    2.1754    3.2743   -0.9409 H   0  0  0  0  0  0  0  0  0  0  0  0
   -1.6918    2.2879    1.7030 H   0  0  0  0  0  0  0  0  0  0  0  0
   -2.1417    2.5469   -0.0274 H   0  0  0  0  0  0  0  0  0  0  0  0
   -2.1161    6.3885    1.5186 H   0  0  0  0  0  0  0  0  0  0  0  0
    0.4198    6.3506    1.5962 H   0  0  0  0  0  0  0  0  0  0  0  0
    2.2812   -4.8981    0.6529 H   0  0  0  0  0  0  0  0  0  0  0  0
    1.0961   -6.9768    0.4889 H   0  0  0  0  0  0  0  0  0  0  0  0
   -2.6624   -4.7976    0.4074 H   0  0  0  0  0  0  0  0  0  0  0  0
   -1.4329   -2.7372    0.5714 H   0  0  0  0  0  0  0  0  0  0  0  0
    0.0589   -8.7704    0.3548 H   0  0  0  0  0  0  0  0  0  0  0  0
   -1.1190  -10.8081   -0.0304 H   0  0  0  0  0  0  0  0  0  0  0  0
   -5.8641  -12.5476   -0.9117 H   0  0  0  0  0  0  0  0  0  0  0  0
   -7.0115  -14.6923   -1.1750 H   0  0  0  0  0  0  0  0  0  0  0  0
   -6.8352  -17.1007   -1.2712 H   0  0  0  0  0  0  0  0  0  0  0  0
   -2.0735  -14.5668   -0.7426 H   0  0  0  0  0  0  0  0  0  0  0  0
   -4.8396   -8.6800   -0.2797 H   0  0  0  0  0  0  0  0  0  0  0  0
   -3.7035   -6.5934    0.1034 H   0  0  0  0  0  0  0  0  0  0  0  0
  1  2  1  0  0  0  0
  1 51  1  0  0  0  0
  2  3  2  0  0  0  0
  2 18  1  0  0  0  0
  3  4  1  0  0  0  0
  3 52  1  0  0  0  0
  4  5  2  0  0  0  0
  4 53  1  0  0  0  0
  5  6  1  0  0  0  0
  5 17  1  0  0  0  0
  6  7  1  0  0  0  0
  6 54  1  0  0  0  0
  7  8  2  3  0  0  0
  8  9  1  0  0  0  0
  8 13  1  0  0  0  0
  9 10  1  0  0  0  0
  9 55  1  0  0  0  0
  9 56  1  0  0  0  0
 10 11  2  0  0  0  0
 10 46  1  0  0  0  0
 11 12  1  0  0  0  0
 11 57  1  0  0  0  0
 12 13  2  0  0  0  0
 12 58  1  0  0  0  0
 13 14  1  0  0  0  0
 14 15  1  0  0  0  0
 15 16  1  0  0  0  0
 16 17  1  0  0  0  0
 17 18  2  0  0  0  0
 18 19  1  0  0  0  0
 19 20  2  3  0  0  0
 20 21  1  0  0  0  0
 21 22  2  0  0  0  0
 21 26  1  0  0  0  0
 22 23  1  0  0  0  0
 22 59  1  0  0  0  0
 23 24  2  0  0  0  0
 23 60  1  0  0  0  0
 24 25  1  0  0  0  0
 24 27  1  0  0  0  0
 25 26  2  0  0  0  0
 25 61  1  0  0  0  0
 26 62  1  0  0  0  0
 27 28  2  0  0  0  0
 27 45  1  0  0  0  0
 28 29  1  0  0  0  0
 28 63  1  0  0  0  0
 29 30  2  0  0  0  0
 29 64  1  0  0  0  0
 30 31  1  0  0  0  0
 30 44  1  0  0  0  0
 31 32  2  3  0  0  0
 32 33  1  0  0  0  0
 33 34  2  0  0  0  0
 33 39  1  0  0  0  0
 34 35  1  0  0  0  0
 34 65  1  0  0  0  0
 35 36  2  0  0  0  0
 35 66  1  0  0  0  0
 36 37  1  0  0  0  0
 36 38  1  0  0  0  0
 37 67  1  0  0  0  0
 38 39  2  0  0  0  0
 38 40  1  0  0  0  0
 39 68  1  0  0  0  0
 40 41  2  0  0  0  0
 40 42  1  0  0  0  0
 42 43  1  0  0  0  0
 44 45  2  0  0  0  0
 44 69  1  0  0  0  0
 45 70  1  0  0  0  0
 46 47  2  0  0  0  0
 46 48  2  0  0  0  0
 46 49  1  0  0  0  0
 49 50  1  0  0  0  0
M  END
$$$$

 OpenBabel12201709243D

 25 25  0  0  0  0  0  0  0  0999 V2000
    1.5366    1.1443    0.7777 C   0  0  0  0  0  0  0  0  0  0  0  0
    2.5242    0.3631    0.2134 O   0  0  0  0  0  0  0  0  0  0  0  0
    3.1331    0.6073   -0.9744 C   0  0  0  0  0  0  0  0  0  0  0  0
    2.9127    1.7852   -1.7116 C   0  0  0  0  0  0  0  0  0  0  0  0
    3.5153    1.9618   -2.9578 C   0  0  0  0  0  0  0  0  0  0  0  0
    4.3340    0.9592   -3.5106 C   0  0  0  0  0  0  0  0  0  0  0  0
    4.5884   -0.1937   -2.7431 C   0  0  0  0  0  0  0  0  0  0  0  0
    3.9958   -0.3640   -1.4905 C   0  0  0  0  0  0  0  0  0  0  0  0
    4.8949    1.1494   -4.8830 C   0  0  0  0  0  0  0  0  0  0  0  0
    4.9944    2.2964   -5.2911 O   0  0  0  0  0  0  0  0  0  0  0  0
    5.1694    0.0054   -5.8264 C   0  0  0  0  0  0  0  0  0  0  0  0
    5.8550    0.0674   -6.9958 C   0  0  0  0  0  0  0  0  0  0  0  0
    6.5860    1.2042   -7.6103 C   0  0  0  0  0  0  0  0  0  0  0  0
    6.7430    2.2707   -7.0435 O   0  0  0  0  0  0  0  0  0  0  0  0
    7.1288    1.0339   -8.8299 O   0  0  0  0  0  0  0  0  0  0  0  0
    8.1293    2.5533   -9.6890 Na  0  0  0  0  0  0  0  0  0  0  0  0
    4.3782   -1.7269   -5.4977 Br  0  0  0  0  0  0  0  0  0  0  0  0
    1.1810    0.6636    1.7116 H   0  0  0  0  0  0  0  0  0  0  0  0
    0.6760    1.2268    0.0786 H   0  0  0  0  0  0  0  0  0  0  0  0
    1.9299    2.1540    1.0176 H   0  0  0  0  0  0  0  0  0  0  0  0
    2.2615    2.5650   -1.3401 H   0  0  0  0  0  0  0  0  0  0  0  0
    3.3051    2.8711   -3.5075 H   0  0  0  0  0  0  0  0  0  0  0  0
    5.2507   -0.9683   -3.0983 H   0  0  0  0  0  0  0  0  0  0  0  0
    4.1929   -1.2683   -0.9273 H   0  0  0  0  0  0  0  0  0  0  0  0
    5.8937   -0.8448   -7.5856 H   0  0  0  0  0  0  0  0  0  0  0  0
  1  2  1  0  0  0  0
  1 18  1  0  0  0  0
  1 19  1  0  0  0  0
  1 20  1  0  0  0  0
  2  3  1  0  0  0  0
  3  4  2  0  0  0  0
  3  8  1  0  0  0  0
  4  5  1  0  0  0  0
  4 21  1  0  0  0  0
  5  6  2  0  0  0  0
  5 22  1  0  0  0  0
  6  7  1  0  0  0  0
  6  9  1  0  0  0  0
  7  8  2  0  0  0  0
  7 23  1  0  0  0  0
  8 24  1  0  0  0  0
  9 10  2  0  0  0  0
  9 11  1  0  0  0  0
 11 12  2  3  0  0  0
 11 17  1  0  0  0  0
 12 13  1  0  0  0  0
 12 25  1  0  0  0  0
 13 14  2  0  0  0  0
 13 15  1  0  0  0  0
 15 16  1  0  0  0  0
M  END
$$$$

 OpenBabel12201709243D

 17 17  0  0  0  0  0  0  0  0999 V2000
    3.1631   -1.2989   -0.2681 C   0  0  0  0  0  0  0  0  0  0  0  0
    2.7963    0.0240    0.2452 N   0  0  0  0  0  0  0  0  0  0  0  0
    2.2074    0.2789    1.4372 N   0  0  0  0  0  0  0  0  0  0  0  0
    1.9678   -0.7306    2.1066 O   0  0  0  0  0  0  0  0  0  0  0  0
    3.2666    1.0717   -0.6047 C   0  0  0  0  0  0  0  0  0  0  0  0
    2.9395    2.4081   -0.3334 C   0  0  0  0  0  0  0  0  0  0  0  0
    3.4167    3.4328   -1.1515 C   0  0  0  0  0  0  0  0  0  0  0  0
    4.2193    3.1166   -2.2356 C   0  0  0  0  0  0  0  0  0  0  0  0
    4.5003    1.7836   -2.4581 C   0  0  0  0  0  0  0  0  0  0  0  0
    4.0428    0.7744   -1.6819 N   0  0  0  0  0  0  0  0  0  0  0  0
    2.7296   -2.1074    0.3317 H   0  0  0  0  0  0  0  0  0  0  0  0
    4.2501   -1.4393   -0.2557 H   0  0  0  0  0  0  0  0  0  0  0  0
    2.7873   -1.4466   -1.2882 H   0  0  0  0  0  0  0  0  0  0  0  0
    2.3076    2.6688    0.5102 H   0  0  0  0  0  0  0  0  0  0  0  0
    3.1615    4.4667   -0.9371 H   0  0  0  0  0  0  0  0  0  0  0  0
    4.6150    3.8863   -2.8879 H   0  0  0  0  0  0  0  0  0  0  0  0
    5.1256    1.4761   -3.2917 H   0  0  0  0  0  0  0  0  0  0  0  0
  1  2  1  0  0  0  0
  1 11  1  0  0  0  0
  1 12  1  0  0  0  0
  1 13  1  0  0  0  0
  2  3  1  0  0  0  0
  2  5  1  0  0  0  0
  3  4  2  0  0  0  0
  5  6  2  0  0  0  0
  5 10  1  0  0  0  0
  6  7  1  0  0  0  0
  6 14  1  0  0  0  0
  7  8  2  0  0  0  0
  7 15  1  0  0  0  0
  8  9  1  0  0  0  0
  8 16  1  0  0  0  0
  9 10  2  0  0  0  0
  9 17  1  0  0  0  0
M  END
$$$$

 OpenBabel12201709243D

 17 17  0  0  0  0  0  0  0  0999 V2000
    3.4169    1.2932   -0.1357 C   0  0  0  0  0  0  0  0  0  0  0  0
    2.5947    0.0794   -0.0189 N   0  0  0  0  0  0  0  0  0  0  0  0
    1.2357    0.0830    0.0464 N   0  0  0  0  0  0  0  0  0  0  0  0
    0.7269    1.2072    0.0045 O   0  0  0  0  0  0  0  0  0  0  0  0
    3.3170   -1.1551    0.0152 C   0  0  0  0  0  0  0  0  0  0  0  0
    4.7177   -1.2300   -0.0395 C   0  0  0  0  0  0  0  0  0  0  0  0
    5.3469   -2.4682    0.0007 C   0  0  0  0  0  0  0  0  0  0  0  0
    4.6950   -3.6415    0.0901 N   0  0  0  0  0  0  0  0  0  0  0  0
    3.3519   -3.5729    0.1417 C   0  0  0  0  0  0  0  0  0  0  0  0
    2.6377   -2.3835    0.1085 C   0  0  0  0  0  0  0  0  0  0  0  0
    2.8166    2.2097   -0.1528 H   0  0  0  0  0  0  0  0  0  0  0  0
    3.9925    1.2850   -1.0687 H   0  0  0  0  0  0  0  0  0  0  0  0
    4.0963    1.3887    0.7190 H   0  0  0  0  0  0  0  0  0  0  0  0
    5.3505   -0.3543   -0.1119 H   0  0  0  0  0  0  0  0  0  0  0  0
    6.4302   -2.5439   -0.0394 H   0  0  0  0  0  0  0  0  0  0  0  0
    2.8406   -4.5288    0.2132 H   0  0  0  0  0  0  0  0  0  0  0  0
    1.5543   -2.4353    0.1558 H   0  0  0  0  0  0  0  0  0  0  0  0
  1  2  1  0  0  0  0
  1 11  1  0  0  0  0
  1 12  1  0  0  0  0
  1 13  1  0  0  0  0
  2  3  1  0  0  0  0
  2  5  1  0  0  0  0
  3  4  2  0  0  0  0
  5  6  2  0  0  0  0
  5 10  1  0  0  0  0
  6  7  1  0  0  0  0
  6 14  1  0  0  0  0
  7  8  2  0  0  0  0
  7 15  1  0  0  0  0
  8  9  1  0  0  0  0
  9 10  2  0  0  0  0
  9 16  1  0  0  0  0
 10 17  1  0  0  0  0
M  END
$$$$

 OpenBabel12201709243D

 38 37  0  0  1  0  0  0  0  0999 V2000
    2.0029   -2.6758   -5.6239 C   0  0  0  0  0  0  0  0  0  0  0  0
    2.2556   -1.6901   -4.4989 C   0  0  0  0  0  0  0  0  0  0  0  0
    3.0400   -2.2763   -3.4457 O   0  0  0  0  0  0  0  0  0  0  0  0
    4.3273   -1.8484   -3.3280 C   0  0  0  0  0  0  0  0  0  0  0  0
    4.9185   -1.1369   -4.1284 O   0  0  0  0  0  0  0  0  0  0  0  0
    4.8873   -2.2855   -1.9910 C   0  0  0  0  0  0  0  0  0  0  0  0
    6.4169   -2.3701   -2.0303 C   0  0  3  0  0  0  0  0  0  0  0  0
    7.1012   -2.6283   -0.3395 S   0  0  0  0  0  0  0  0  0  0  0  0
    6.3344   -4.4881    0.3295 P   0  0  0  0  0  0  0  0  0  0  0  0
    7.0227   -5.1626   -0.8521 O   0  0  0  0  0  0  0  0  0  0  0  0
    7.3465   -4.4756    1.6368 O   0  0  0  0  0  0  0  0  0  0  0  0
    8.5765   -5.1727    1.5343 C   0  0  0  0  0  0  0  0  0  0  0  0
    5.7086   -6.0058    0.8755 O   0  0  0  0  0  0  0  0  0  0  0  0
    4.8400   -5.9079    1.9890 C   0  0  0  0  0  0  0  0  0  0  0  0
    6.9615   -3.4245   -2.9958 C   0  0  0  0  0  0  0  0  0  0  0  0
    8.1471   -3.5374   -3.2842 O   0  0  0  0  0  0  0  0  0  0  0  0
    5.9570   -4.1882   -3.5164 O   0  0  0  0  0  0  0  0  0  0  0  0
    6.3632   -5.2349   -4.4079 C   0  0  0  0  0  0  0  0  0  0  0  0
    6.6859   -4.6784   -5.7826 C   0  0  0  0  0  0  0  0  0  0  0  0
    1.3442   -2.2301   -6.3763 H   0  0  0  0  0  0  0  0  0  0  0  0
    1.5308   -3.5893   -5.2481 H   0  0  0  0  0  0  0  0  0  0  0  0
    2.9383   -2.9686   -6.1102 H   0  0  0  0  0  0  0  0  0  0  0  0
    1.2988   -1.4083   -4.0475 H   0  0  0  0  0  0  0  0  0  0  0  0
    2.7087   -0.7717   -4.8874 H   0  0  0  0  0  0  0  0  0  0  0  0
    4.4468   -3.2495   -1.7096 H   0  0  0  0  0  0  0  0  0  0  0  0
    4.5632   -1.5334   -1.2602 H   0  0  0  0  0  0  0  0  0  0  0  0
    6.8106   -1.4107   -2.3831 H   0  0  0  0  0  0  0  0  0  0  0  0
    9.2030   -4.8887    2.3841 H   0  0  0  0  0  0  0  0  0  0  0  0
    9.1070   -4.9088    0.6157 H   0  0  0  0  0  0  0  0  0  0  0  0
    8.3984   -6.2500    1.5715 H   0  0  0  0  0  0  0  0  0  0  0  0
    4.4277   -6.8975    2.2002 H   0  0  0  0  0  0  0  0  0  0  0  0
    4.0214   -5.2199    1.7628 H   0  0  0  0  0  0  0  0  0  0  0  0
    5.3855   -5.5596    2.8700 H   0  0  0  0  0  0  0  0  0  0  0  0
    5.5165   -5.9255   -4.4882 H   0  0  0  0  0  0  0  0  0  0  0  0
    7.2021   -5.7993   -3.9855 H   0  0  0  0  0  0  0  0  0  0  0  0
    5.8303   -4.1256   -6.1844 H   0  0  0  0  0  0  0  0  0  0  0  0
    6.9448   -5.4846   -6.4749 H   0  0  0  0  0  0  0  0  0  0  0  0
    7.5240   -3.9766   -5.7428 H   0  0  0  0  0  0  0  0  0  0  0  0
  1  2  1  0  0  0  0
  1 20  1  0  0  0  0
  1 21  1  0  0  0  0
  1 22  1  0  0  0  0
  2  3  1  0  0  0  0
  2 23  1  0  0  0  0
  2 24  1  0  0  0  0
  3  4  1  0  0  0  0
  4  5  2  0  0  0  0
  4  6  1  0  0  0  0
  6  7  1  0  0  0  0
  6 25  1  0  0  0  0
  6 26  1  0  0  0  0
  7  8  1  0  0  0  0
  7 15  1  0  0  0  0
  7 27  1  0  0  0  0
  8  9  1  0  0  0  0
  9 10  2  0  0  0  0
  9 11  1  0  0  0  0
  9 13  1  0  0  0  0
 11 12  1  0  0  0  0
 12 28  1  0  0  0  0
 12 29  1  0  0  0  0
 12 30  1  0  0  0  0
 13 14  1  0  0  0  0
 14 31  1  0  0  0  0
 14 32  1  0  0  0  0
 14 33  1  0  0  0  0
 15 16  2  0  0  0  0
 15 17  1  0  0  0  0
 17 18  1  0  0  0  0
 18 19  1  0  0  0  0
 18 34  1  0  0  0  0
 18 35  1  0  0  0  0
 19 36  1  0  0  0  0
 19 37  1  0  0  0  0
 19 38  1  0  0  0  0
M  END
$$$$

 OpenBabel12201709243D

 38 41  0  0  0  0  0  0  0  0999 V2000
    4.4512   -5.5782   -1.5134 O   0  0  0  0  0  0  0  0  0  0  0  0
    3.8813   -4.4238   -1.9256 C   0  0  0  0  0  0  0  0  0  0  0  0
    3.2826   -4.3035   -2.9786 O   0  0  0  0  0  0  0  0  0  0  0  0
    3.9185   -3.3454   -0.9184 C   0  0  0  0  0  0  0  0  0  0  0  0
    5.1373   -3.1786   -0.2167 C   0  0  0  0  0  0  0  0  0  0  0  0
    5.2887   -2.1777    0.7358 C   0  0  0  0  0  0  0  0  0  0  0  0
    4.2240   -1.3380    1.0031 C   0  0  0  0  0  0  0  0  0  0  0  0
    3.0130   -1.5039    0.3219 C   0  0  0  0  0  0  0  0  0  0  0  0
    2.8141   -2.4841   -0.6933 C   0  0  0  0  0  0  0  0  0  0  0  0
    1.4040   -2.5789   -1.2962 C   0  0  0  0  0  0  0  0  0  0  0  0
    0.6524   -1.3821   -1.4557 C   0  0  0  0  0  0  0  0  0  0  0  0
    1.1424   -0.1066   -1.7995 C   0  0  0  0  0  0  0  0  0  0  0  0
    0.3012    1.0170   -1.8245 C   0  0  0  0  0  0  0  0  0  0  0  0
    1.1549    2.8959   -2.0974 I   0  0  0  0  0  0  0  0  0  0  0  0
   -1.0731    0.8718   -1.5973 C   0  0  0  0  0  0  0  0  0  0  0  0
   -1.9164    1.9460   -1.6340 O   0  0  0  0  0  0  0  0  0  0  0  0
   -1.5910   -0.3857   -1.2764 C   0  0  0  0  0  0  0  0  0  0  0  0
   -3.6597   -0.6815   -1.0169 I   0  0  0  0  0  0  0  0  0  0  0  0
   -0.7227   -1.4712   -1.1073 C   0  0  0  0  0  0  0  0  0  0  0  0
   -1.1457   -2.4479   -0.4319 O   0  0  0  0  0  0  0  0  0  0  0  0
   -0.3929   -3.4281   -0.2151 C   0  0  0  0  0  0  0  0  0  0  0  0
   -0.2576   -3.9845    1.0671 C   0  0  0  0  0  0  0  0  0  0  0  0
   -0.9615   -2.8868    2.7118 I   0  0  0  0  0  0  0  0  0  0  0  0
    0.5682   -5.1009    1.2379 C   0  0  0  0  0  0  0  0  0  0  0  0
    0.9679   -5.4858    2.4870 O   0  0  0  0  0  0  0  0  0  0  0  0
    1.0359   -5.7715    0.1152 C   0  0  0  0  0  0  0  0  0  0  0  0
    1.7665   -7.7070    0.1735 I   0  0  0  0  0  0  0  0  0  0  0  0
    1.0450   -5.0785   -1.0819 C   0  0  0  0  0  0  0  0  0  0  0  0
    0.6300   -3.7376   -1.0748 C   0  0  0  0  0  0  0  0  0  0  0  0
    4.8511   -5.6110   -0.6286 H   0  0  0  0  0  0  0  0  0  0  0  0
    6.0019   -3.8093   -0.4263 H   0  0  0  0  0  0  0  0  0  0  0  0
    6.2361   -2.0459    1.2559 H   0  0  0  0  0  0  0  0  0  0  0  0
    4.3330   -0.5435    1.7400 H   0  0  0  0  0  0  0  0  0  0  0  0
    2.2168   -0.8231    0.6245 H   0  0  0  0  0  0  0  0  0  0  0  0
    2.2051    0.0187   -2.0115 H   0  0  0  0  0  0  0  0  0  0  0  0
   -1.4179    2.7715   -1.7510 H   0  0  0  0  0  0  0  0  0  0  0  0
    1.8422   -5.0869    2.6715 H   0  0  0  0  0  0  0  0  0  0  0  0
    1.4183   -5.5281   -2.0063 H   0  0  0  0  0  0  0  0  0  0  0  0
  1  2  1  0  0  0  0
  1 30  1  0  0  0  0
  2  3  2  0  0  0  0
  2  4  1  0  0  0  0
  4  5  2  0  0  0  0
  4  9  1  0  0  0  0
  5  6  1  0  0  0  0
  5 31  1  0  0  0  0
  6  7  2  0  0  0  0
  6 32  1  0  0  0  0
  7  8  1  0  0  0  0
  7 33  1  0  0  0  0
  8  9  2  0  0  0  0
  8 34  1  0  0  0  0
  9 10  1  0  0  0  0
 10 11  2  0  0  0  0
 10 29  1  0  0  0  0
 11 12  1  0  0  0  0
 11 19  1  0  0  0  0
 12 13  2  0  0  0  0
 12 35  1  0  0  0  0
 13 14  1  0  0  0  0
 13 15  1  0  0  0  0
 15 16  1  0  0  0  0
 15 17  2  0  0  0  0
 16 36  1  0  0  0  0
 17 18  1  0  0  0  0
 17 19  1  0  0  0  0
 19 20  2  0  0  0  0
 20 21  1  0  0  0  0
 21 22  2  0  0  0  0
 21 29  1  0  0  0  0
 22 23  1  0  0  0  0
 22 24  1  0  0  0  0
 24 25  1  0  0  0  0
 24 26  2  0  0  0  0
 25 37  1  0  0  0  0
 26 27  1  0  0  0  0
 26 28  1  0  0  0  0
 28 29  2  0  0  0  0
 28 38  1  0  0  0  0
M  END
$$$$

 OpenBabel12201709243D

 15 14  0  0  0  0  0  0  0  0999 V2000
    1.1139   -0.0888   -0.0809 C   0  0  0  0  0  0  0  0  0  0  0  0
    2.6103    0.0093   -0.0518 C   0  0  0  0  0  0  0  0  0  0  0  0
    3.3165   -1.0250   -0.3582 N   0  0  0  0  0  0  0  0  0  0  0  0
    4.6915   -0.9807   -0.3451 N   0  0  0  0  0  0  0  0  0  0  0  0
    5.5190    0.1589   -0.0075 C   0  0  0  0  0  0  0  0  0  0  0  0
    5.3415   -2.1615   -0.6949 C   0  0  0  0  0  0  0  0  0  0  0  0
    6.5554   -2.3295   -0.7446 O   0  0  0  0  0  0  0  0  0  0  0  0
    0.6827    0.8741    0.2043 H   0  0  0  0  0  0  0  0  0  0  0  0
    0.7823   -0.8564    0.6230 H   0  0  0  0  0  0  0  0  0  0  0  0
    0.7823   -0.3492   -1.0893 H   0  0  0  0  0  0  0  0  0  0  0  0
    3.0148    0.9894    0.2385 H   0  0  0  0  0  0  0  0  0  0  0  0
    4.9595    1.0532    0.2573 H   0  0  0  0  0  0  0  0  0  0  0  0
    6.1617    0.3887   -0.8637 H   0  0  0  0  0  0  0  0  0  0  0  0
    6.1617   -0.1146    0.8357 H   0  0  0  0  0  0  0  0  0  0  0  0
    4.6319   -2.9714   -0.9348 H   0  0  0  0  0  0  0  0  0  0  0  0
  1  2  1  0  0  0  0
  1  8  1  0  0  0  0
  1  9  1  0  0  0  0
  1 10  1  0  0  0  0
  2  3  2  3  0  0  0
  2 11  1  0  0  0  0
  3  4  1  0  0  0  0
  4  5  1  0  0  0  0
  4  6  1  0  0  0  0
  5 12  1  0  0  0  0
  5 13  1  0  0  0  0
  5 14  1  0  0  0  0
  6  7  2  0  0  0  0
  6 15  1  0  0  0  0
M  END
$$$$

 OpenBabel12201709243D

 15 15  0  0  0  0  0  0  0  0999 V2000
    0.8969   -0.0523    0.5656 O   0  0  0  0  0  0  0  0  0  0  0  0
    2.0748    0.3087    0.6558 N   0  0  0  0  0  0  0  0  0  0  0  0
    2.9401   -0.6917    1.1081 N   0  0  0  0  0  0  0  0  0  0  0  0
    2.4280   -1.9633    1.5944 C   0  0  0  0  0  0  0  0  0  0  0  0
    3.4697   -3.0525    1.4598 C   0  0  0  0  0  0  0  0  0  0  0  0
    4.7537   -2.6017    2.0944 C   0  0  0  0  0  0  0  0  0  0  0  0
    5.5545   -3.3878    2.5919 O   0  0  0  0  0  0  0  0  0  0  0  0
    5.0224   -1.2633    2.0035 N   0  0  0  0  0  0  0  0  0  0  0  0
    4.2340   -0.2927    1.4249 C   0  0  0  0  0  0  0  0  0  0  0  0
    4.7134    0.8223    1.2294 O   0  0  0  0  0  0  0  0  0  0  0  0
    1.5358   -2.2627    1.0331 H   0  0  0  0  0  0  0  0  0  0  0  0
    2.1503   -1.8255    2.6465 H   0  0  0  0  0  0  0  0  0  0  0  0
    3.6735   -3.2761    0.4062 H   0  0  0  0  0  0  0  0  0  0  0  0
    3.1220   -3.9671    1.9517 H   0  0  0  0  0  0  0  0  0  0  0  0
    5.9403   -0.9647    2.3022 H   0  0  0  0  0  0  0  0  0  0  0  0
  1  2  2  0  0  0  0
  2  3  1  0  0  0  0
  3  4  1  0  0  0  0
  3  9  1  0  0  0  0
  4  5  1  0  0  0  0
  4 11  1  0  0  0  0
  4 12  1  0  0  0  0
  5  6  1  0  0  0  0
  5 13  1  0  0  0  0
  5 14  1  0  0  0  0
  6  7  2  0  0  0  0
  6  8  1  0  0  0  0
  8  9  1  0  0  0  0
  8 15  1  0  0  0  0
  9 10  2  0  0  0  0
M  END
$$$$

 OpenBabel12201709243D

 92 96  0  0  0  0  0  0  0  0999 V2000
    2.1977   -1.3312    4.2574 C   0  0  0  0  0  0  0  0  0  0  0  0
    2.4988   -0.6395    2.9240 C   0  0  0  0  0  0  0  0  0  0  0  0
    3.2206    0.6337    3.0815 N   0  0  0  0  0  0  0  0  0  0  0  0
    2.4582    1.7463    3.6897 C   0  0  0  0  0  0  0  0  0  0  0  0
    3.0825    2.3715    4.9340 C   0  0  0  0  0  0  0  0  0  0  0  0
    3.8329    1.6132    5.8481 C   0  0  0  0  0  0  0  0  0  0  0  0
    4.3852    2.2163    6.9842 C   0  0  0  0  0  0  0  0  0  0  0  0
    4.1907    3.5783    7.2291 C   0  0  0  0  0  0  0  0  0  0  0  0
    3.4447    4.3502    6.3347 C   0  0  0  0  0  0  0  0  0  0  0  0
    2.8963    3.7496    5.1901 C   0  0  0  0  0  0  0  0  0  0  0  0
    3.1653    6.0969    6.6678 S   0  0  0  0  0  0  0  0  0  0  0  0
    4.2754    6.6914    7.5493 O   0  0  0  0  0  0  0  0  0  0  0  0
    3.2781    6.9796    5.4162 O   0  0  0  0  0  0  0  0  0  0  0  0
    1.7040    6.5597    7.4392 O   0  0  0  0  0  0  0  0  0  0  0  0
    0.2542    5.8945    6.1765 Na  0  0  0  0  0  0  0  0  0  0  0  0
    4.5775    0.8279    2.5788 C   0  0  0  0  0  0  0  0  0  0  0  0
    5.3590   -0.2065    1.9868 C   0  0  0  0  0  0  0  0  0  0  0  0
    6.6908    0.0056    1.5809 C   0  0  0  0  0  0  0  0  0  0  0  0
    7.3158    1.2531    1.7396 C   0  0  0  0  0  0  0  0  0  0  0  0
    6.5280    2.2750    2.3236 C   0  0  0  0  0  0  0  0  0  0  0  0
    5.2070    2.0778    2.7039 C   0  0  0  0  0  0  0  0  0  0  0  0
    8.7934    1.4516    1.3874 C   0  0  0  0  0  0  0  0  0  0  0  0
    9.3485    2.6919    1.1474 C   0  0  0  0  0  0  0  0  0  0  0  0
    8.5405    3.9211    0.9632 C   0  0  0  0  0  0  0  0  0  0  0  0
    9.0466    5.1313    1.1911 C   0  0  0  0  0  0  0  0  0  0  0  0
   10.4785    5.3107    1.5930 C   0  0  0  0  0  0  0  0  0  0  0  0
   10.9363    6.4097    2.1732 N   0  0  0  0  0  0  0  0  0  0  0  0
   10.0450    7.5376    2.5413 C   0  0  0  0  0  0  0  0  0  0  0  0
   10.0264    7.8551    4.0453 C   0  0  0  0  0  0  0  0  0  0  0  0
   12.3728    6.6006    2.4524 C   0  0  0  0  0  0  0  0  0  0  0  0
   13.0186    5.5693    3.3699 C   0  0  0  0  0  0  0  0  0  0  0  0
   12.5056    5.2909    4.6472 C   0  0  0  0  0  0  0  0  0  0  0  0
   13.1381    4.3566    5.4762 C   0  0  0  0  0  0  0  0  0  0  0  0
   14.2968    3.7037    5.0498 C   0  0  0  0  0  0  0  0  0  0  0  0
   14.8337    3.9818    3.7905 C   0  0  0  0  0  0  0  0  0  0  0  0
   14.1931    4.9041    2.9523 C   0  0  0  0  0  0  0  0  0  0  0  0
   16.3615    3.1870    3.2763 S   0  0  0  0  0  0  0  0  0  0  0  0
   17.2056    4.0795    2.3526 O   0  0  0  0  0  0  0  0  0  0  0  0
   17.3162    3.0665    4.4740 O   0  0  0  0  0  0  0  0  0  0  0  0
   16.3653    1.6219    2.5680 O   0  0  0  0  0  0  0  0  0  0  0  0
   11.3524    4.1329    1.2551 C   0  0  0  0  0  0  0  0  0  0  0  0
   10.8263    2.9079    1.0473 C   0  0  0  0  0  0  0  0  0  0  0  0
    9.7320    0.2759    1.4555 C   0  0  0  0  0  0  0  0  0  0  0  0
   10.4272   -0.0309    2.6385 C   0  0  0  0  0  0  0  0  0  0  0  0
   11.4053   -1.0423    2.6600 C   0  0  0  0  0  0  0  0  0  0  0  0
   11.7138   -1.7879    1.4995 C   0  0  0  0  0  0  0  0  0  0  0  0
   10.9806   -1.4894    0.3255 C   0  0  0  0  0  0  0  0  0  0  0  0
   10.0165   -0.4706    0.3036 C   0  0  0  0  0  0  0  0  0  0  0  0
   12.7609   -2.7883    1.4857 N   0  0  0  0  0  0  0  0  0  0  0  0
   12.7741   -3.8970    0.5438 C   0  0  0  0  0  0  0  0  0  0  0  0
   13.9150   -2.7152    2.3801 C   0  0  0  0  0  0  0  0  0  0  0  0
    1.6754   -2.2922    4.0526 H   0  0  0  0  0  0  0  0  0  0  0  0
    1.5407   -0.7189    4.9075 H   0  0  0  0  0  0  0  0  0  0  0  0
    3.1394   -1.5671    4.7961 H   0  0  0  0  0  0  0  0  0  0  0  0
    1.5478   -0.4584    2.3784 H   0  0  0  0  0  0  0  0  0  0  0  0
    3.0424   -1.3771    2.3215 H   0  0  0  0  0  0  0  0  0  0  0  0
    1.4335    1.4302    3.9684 H   0  0  0  0  0  0  0  0  0  0  0  0
    2.3132    2.5392    2.9213 H   0  0  0  0  0  0  0  0  0  0  0  0
    3.9951    0.5591    5.6830 H   0  0  0  0  0  0  0  0  0  0  0  0
    4.9635    1.6256    7.6826 H   0  0  0  0  0  0  0  0  0  0  0  0
    4.6160    4.0291    8.1182 H   0  0  0  0  0  0  0  0  0  0  0  0
    2.3183    4.3581    4.5053 H   0  0  0  0  0  0  0  0  0  0  0  0
    4.9962   -1.2045    1.8337 H   0  0  0  0  0  0  0  0  0  0  0  0
    7.2371   -0.8235    1.1514 H   0  0  0  0  0  0  0  0  0  0  0  0
    6.9036    3.2520    2.5644 H   0  0  0  0  0  0  0  0  0  0  0  0
    4.7069    2.9320    3.1282 H   0  0  0  0  0  0  0  0  0  0  0  0
    7.5040    3.8654    0.6503 H   0  0  0  0  0  0  0  0  0  0  0  0
    8.3552    5.9484    1.0537 H   0  0  0  0  0  0  0  0  0  0  0  0
    8.9845    7.3789    2.3094 H   0  0  0  0  0  0  0  0  0  0  0  0
   10.3578    8.4447    1.9858 H   0  0  0  0  0  0  0  0  0  0  0  0
    9.6443    6.9925    4.6307 H   0  0  0  0  0  0  0  0  0  0  0  0
    9.3337    8.7076    4.2213 H   0  0  0  0  0  0  0  0  0  0  0  0
   11.0188    8.1605    4.4311 H   0  0  0  0  0  0  0  0  0  0  0  0
   12.5438    7.5918    2.9222 H   0  0  0  0  0  0  0  0  0  0  0  0
   12.9154    6.6371    1.4842 H   0  0  0  0  0  0  0  0  0  0  0  0
   11.6216    5.7905    5.0081 H   0  0  0  0  0  0  0  0  0  0  0  0
   12.7366    4.1445    6.4584 H   0  0  0  0  0  0  0  0  0  0  0  0
   14.7843    2.9920    5.7041 H   0  0  0  0  0  0  0  0  0  0  0  0
   14.6211    5.1151    1.9798 H   0  0  0  0  0  0  0  0  0  0  0  0
   16.0095    1.7534    1.6536 H   0  0  0  0  0  0  0  0  0  0  0  0
   12.4262    4.2170    1.2229 H   0  0  0  0  0  0  0  0  0  0  0  0
   11.5084    2.0801    0.8818 H   0  0  0  0  0  0  0  0  0  0  0  0
   10.2359    0.5334    3.5423 H   0  0  0  0  0  0  0  0  0  0  0  0
   11.9149   -1.2324    3.5951 H   0  0  0  0  0  0  0  0  0  0  0  0
   11.1798   -2.0021   -0.6035 H   0  0  0  0  0  0  0  0  0  0  0  0
    9.5142   -0.2425   -0.6264 H   0  0  0  0  0  0  0  0  0  0  0  0
   11.8524   -3.9612   -0.0682 H   0  0  0  0  0  0  0  0  0  0  0  0
   12.8458   -4.8568    1.0984 H   0  0  0  0  0  0  0  0  0  0  0  0
   13.6468   -3.8096   -0.1270 H   0  0  0  0  0  0  0  0  0  0  0  0
   13.9159   -1.8200    3.0258 H   0  0  0  0  0  0  0  0  0  0  0  0
   14.8447   -2.6597    1.7702 H   0  0  0  0  0  0  0  0  0  0  0  0
   13.9733   -3.6268    3.0141 H   0  0  0  0  0  0  0  0  0  0  0  0
  1  2  1  0  0  0  0
  1 52  1  0  0  0  0
  1 53  1  0  0  0  0
  1 54  1  0  0  0  0
  2  3  1  0  0  0  0
  2 55  1  0  0  0  0
  2 56  1  0  0  0  0
  3  4  1  0  0  0  0
  3 16  1  0  0  0  0
  4  5  1  0  0  0  0
  4 57  1  0  0  0  0
  4 58  1  0  0  0  0
  5  6  2  0  0  0  0
  5 10  1  0  0  0  0
  6  7  1  0  0  0  0
  6 59  1  0  0  0  0
  7  8  2  0  0  0  0
  7 60  1  0  0  0  0
  8  9  1  0  0  0  0
  8 61  1  0  0  0  0
  9 10  2  0  0  0  0
  9 11  1  0  0  0  0
 10 62  1  0  0  0  0
 11 12  2  0  0  0  0
 11 13  2  0  0  0  0
 11 14  1  0  0  0  0
 14 15  1  0  0  0  0
 16 17  2  0  0  0  0
 16 21  1  0  0  0  0
 17 18  1  0  0  0  0
 17 63  1  0  0  0  0
 18 19  2  0  0  0  0
 18 64  1  0  0  0  0
 19 20  1  0  0  0  0
 19 22  1  0  0  0  0
 20 21  2  0  0  0  0
 20 65  1  0  0  0  0
 21 66  1  0  0  0  0
 22 23  2  3  0  0  0
 22 43  1  0  0  0  0
 23 24  1  0  0  0  0
 23 42  1  0  0  0  0
 24 25  2  0  0  0  0
 24 67  1  0  0  0  0
 25 26  1  0  0  0  0
 25 68  1  0  0  0  0
 26 27  2  3  0  0  0
 26 41  1  0  0  0  0
 27 28  1  0  0  0  0
 27 30  1  0  0  0  0
 28 29  1  0  0  0  0
 28 69  1  0  0  0  0
 28 70  1  0  0  0  0
 29 71  1  0  0  0  0
 29 72  1  0  0  0  0
 29 73  1  0  0  0  0
 30 31  1  0  0  0  0
 30 74  1  0  0  0  0
 30 75  1  0  0  0  0
 31 32  2  0  0  0  0
 31 36  1  0  0  0  0
 32 33  1  0  0  0  0
 32 76  1  0  0  0  0
 33 34  2  0  0  0  0
 33 77  1  0  0  0  0
 34 35  1  0  0  0  0
 34 78  1  0  0  0  0
 35 36  2  0  0  0  0
 35 37  1  0  0  0  0
 36 79  1  0  0  0  0
 37 38  2  0  0  0  0
 37 39  2  0  0  0  0
 37 40  1  0  0  0  0
 40 80  1  0  0  0  0
 41 42  2  0  0  0  0
 41 81  1  0  0  0  0
 42 82  1  0  0  0  0
 43 44  2  0  0  0  0
 43 48  1  0  0  0  0
 44 45  1  0  0  0  0
 44 83  1  0  0  0  0
 45 46  2  0  0  0  0
 45 84  1  0  0  0  0
 46 47  1  0  0  0  0
 46 49  1  0  0  0  0
 47 48  2  0  0  0  0
 47 85  1  0  0  0  0
 48 86  1  0  0  0  0
 49 50  1  0  0  0  0
 49 51  1  0  0  0  0
 50 87  1  0  0  0  0
 50 88  1  0  0  0  0
 50 89  1  0  0  0  0
 51 90  1  0  0  0  0
 51 91  1  0  0  0  0
 51 92  1  0  0  0  0
M  END
$$$$

 OpenBabel12201709243D

 28 28  0  0  0  0  0  0  0  0999 V2000
    0.9548    0.4257   -0.9796 C   0  0  0  0  0  0  0  0  0  0  0  0
    2.4584    0.5132   -1.1596 C   0  0  0  0  0  0  0  0  0  0  0  0
    3.0104   -0.8036   -1.0915 O   0  0  0  0  0  0  0  0  0  0  0  0
    4.3572   -0.9081   -1.3630 C   0  0  0  0  0  0  0  0  0  0  0  0
    5.2107    0.1784   -1.5443 C   0  0  0  0  0  0  0  0  0  0  0  0
    6.5591   -0.0208   -1.8403 C   0  0  0  0  0  0  0  0  0  0  0  0
    7.0855   -1.3096   -1.9447 C   0  0  0  0  0  0  0  0  0  0  0  0
    8.4384   -1.5617   -2.2637 N   0  0  0  0  0  0  0  0  0  0  0  0
    9.4567   -0.6268   -2.3312 C   0  0  0  0  0  0  0  0  0  0  0  0
    9.3894    0.5570   -2.0130 O   0  0  0  0  0  0  0  0  0  0  0  0
   10.7551   -1.1864   -2.8543 C   0  0  0  0  0  0  0  0  0  0  0  0
    6.2331   -2.4050   -1.7491 C   0  0  0  0  0  0  0  0  0  0  0  0
    4.8671   -2.2170   -1.4820 C   0  0  0  0  0  0  0  0  0  0  0  0
    4.0688   -3.3256   -1.1330 N   0  0  0  0  0  0  0  0  0  0  0  0
    0.5045    1.4222   -1.0211 H   0  0  0  0  0  0  0  0  0  0  0  0
    0.7057   -0.0358   -0.0191 H   0  0  0  0  0  0  0  0  0  0  0  0
    0.5081   -0.1952   -1.7626 H   0  0  0  0  0  0  0  0  0  0  0  0
    2.8753    1.1372   -0.3608 H   0  0  0  0  0  0  0  0  0  0  0  0
    2.6649    0.9635   -2.1382 H   0  0  0  0  0  0  0  0  0  0  0  0
    4.8696    1.2047   -1.4613 H   0  0  0  0  0  0  0  0  0  0  0  0
    7.1725    0.8602   -1.9916 H   0  0  0  0  0  0  0  0  0  0  0  0
    8.6851   -2.5309   -2.4165 H   0  0  0  0  0  0  0  0  0  0  0  0
   10.6762   -2.2424   -3.1204 H   0  0  0  0  0  0  0  0  0  0  0  0
   11.5264   -1.0705   -2.0882 H   0  0  0  0  0  0  0  0  0  0  0  0
   11.0400   -0.6237   -3.7486 H   0  0  0  0  0  0  0  0  0  0  0  0
    6.6287   -3.4156   -1.7800 H   0  0  0  0  0  0  0  0  0  0  0  0
    4.2997   -4.1820   -1.6223 H   0  0  0  0  0  0  0  0  0  0  0  0
    3.0791   -3.0858   -1.1808 H   0  0  0  0  0  0  0  0  0  0  0  0
  1  2  1  0  0  0  0
  1 15  1  0  0  0  0
  1 16  1  0  0  0  0
  1 17  1  0  0  0  0
  2  3  1  0  0  0  0
  2 18  1  0  0  0  0
  2 19  1  0  0  0  0
  3  4  1  0  0  0  0
  4  5  2  0  0  0  0
  4 13  1  0  0  0  0
  5  6  1  0  0  0  0
  5 20  1  0  0  0  0
  6  7  2  0  0  0  0
  6 21  1  0  0  0  0
  7  8  1  0  0  0  0
  7 12  1  0  0  0  0
  8  9  1  0  0  0  0
  8 22  1  0  0  0  0
  9 10  2  0  0  0  0
  9 11  1  0  0  0  0
 11 23  1  0  0  0  0
 11 24  1  0  0  0  0
 11 25  1  0  0  0  0
 12 13  2  0  0  0  0
 12 26  1  0  0  0  0
 13 14  1  0  0  0  0
 14 27  1  0  0  0  0
 14 28  1  0  0  0  0
M  END
$$$$

 OpenBabel12201709243D

 22 24  0  0  0  0  0  0  0  0999 V2000
    1.0925   -0.0557   -0.0738 Cl  0  0  0  0  0  0  0  0  0  0  0  0
    2.8202   -0.0502   -0.0766 C   0  0  0  0  0  0  0  0  0  0  0  0
    3.4719   -1.2867   -0.0788 C   0  0  0  0  0  0  0  0  0  0  0  0
    4.8644   -1.3328   -0.0809 C   0  0  0  0  0  0  0  0  0  0  0  0
    5.4552   -2.5706   -0.0825 O   0  0  0  0  0  0  0  0  0  0  0  0
    6.8267   -2.5728   -0.0837 C   0  0  0  0  0  0  0  0  0  0  0  0
    7.4660   -3.8110   -0.0837 C   0  0  0  0  0  0  0  0  0  0  0  0
    8.8625   -3.8692   -0.0846 C   0  0  0  0  0  0  0  0  0  0  0  0
    9.5990   -5.4320   -0.0847 Cl  0  0  0  0  0  0  0  0  0  0  0  0
    9.6130   -2.6847   -0.0852 C   0  0  0  0  0  0  0  0  0  0  0  0
   11.3408   -2.6860   -0.0863 Cl  0  0  0  0  0  0  0  0  0  0  0  0
    8.9647   -1.4455   -0.0849 C   0  0  0  0  0  0  0  0  0  0  0  0
    7.5720   -1.3948   -0.0840 C   0  0  0  0  0  0  0  0  0  0  0  0
    6.9808   -0.1564   -0.0832 O   0  0  0  0  0  0  0  0  0  0  0  0
    5.6086   -0.1540   -0.0810 C   0  0  0  0  0  0  0  0  0  0  0  0
    4.9652    1.0823   -0.0790 C   0  0  0  0  0  0  0  0  0  0  0  0
    3.5679    1.1361   -0.0767 C   0  0  0  0  0  0  0  0  0  0  0  0
    2.8253    2.6960   -0.0737 Cl  0  0  0  0  0  0  0  0  0  0  0  0
    2.9017   -2.2121   -0.0788 H   0  0  0  0  0  0  0  0  0  0  0  0
    6.8748   -4.7231   -0.0832 H   0  0  0  0  0  0  0  0  0  0  0  0
    9.5387   -0.5225   -0.0853 H   0  0  0  0  0  0  0  0  0  0  0  0
    5.5528    1.9967   -0.0792 H   0  0  0  0  0  0  0  0  0  0  0  0
  1  2  1  0  0  0  0
  2  3  2  0  0  0  0
  2 17  1  0  0  0  0
  3  4  1  0  0  0  0
  3 19  1  0  0  0  0
  4  5  1  0  0  0  0
  4 15  2  0  0  0  0
  5  6  1  0  0  0  0
  6  7  2  0  0  0  0
  6 13  1  0  0  0  0
  7  8  1  0  0  0  0
  7 20  1  0  0  0  0
  8  9  1  0  0  0  0
  8 10  2  0  0  0  0
 10 11  1  0  0  0  0
 10 12  1  0  0  0  0
 12 13  2  0  0  0  0
 12 21  1  0  0  0  0
 13 14  1  0  0  0  0
 14 15  1  0  0  0  0
 15 16  1  0  0  0  0
 16 17  2  0  0  0  0
 16 22  1  0  0  0  0
 17 18  1  0  0  0  0
M  END
$$$$

 OpenBabel12201709243D

 29 29  0  0  0  0  0  0  0  0999 V2000
    1.0314    0.1800   -0.6270 C   0  0  0  0  0  0  0  0  0  0  0  0
    2.5368    0.2549   -0.7992 C   0  0  0  0  0  0  0  0  0  0  0  0
    3.0486   -1.0821   -0.7860 O   0  0  0  0  0  0  0  0  0  0  0  0
    4.3867   -1.2471   -1.0291 C   0  0  0  0  0  0  0  0  0  0  0  0
    5.2866   -0.1890   -1.1651 C   0  0  0  0  0  0  0  0  0  0  0  0
    6.6406   -0.4258   -1.4263 C   0  0  0  0  0  0  0  0  0  0  0  0
    7.1302   -1.7210   -1.5559 C   0  0  0  0  0  0  0  0  0  0  0  0
    8.4801   -2.0152   -1.8462 N   0  0  0  0  0  0  0  0  0  0  0  0
    9.5354   -1.1200   -1.8384 C   0  0  0  0  0  0  0  0  0  0  0  0
    9.4949    0.0525   -1.4780 O   0  0  0  0  0  0  0  0  0  0  0  0
   10.8357   -1.7116   -2.3214 C   0  0  0  0  0  0  0  0  0  0  0  0
    6.2357   -2.7885   -1.4207 C   0  0  0  0  0  0  0  0  0  0  0  0
    4.8702   -2.5595   -1.1450 C   0  0  0  0  0  0  0  0  0  0  0  0
    3.9988   -3.7219   -0.9876 N   0  0  0  0  0  0  0  0  0  0  0  0
    4.4860   -4.8320   -1.0957 O   0  0  0  0  0  0  0  0  0  0  0  0
    2.6426   -3.6277   -0.7156 O   0  0  0  0  0  0  0  0  0  0  0  0
    0.5919    1.1812   -0.6079 H   0  0  0  0  0  0  0  0  0  0  0  0
    0.7746   -0.3391    0.3021 H   0  0  0  0  0  0  0  0  0  0  0  0
    0.5798   -0.3887   -1.4465 H   0  0  0  0  0  0  0  0  0  0  0  0
    2.9653    0.8296    0.0298 H   0  0  0  0  0  0  0  0  0  0  0  0
    2.7608    0.7415   -1.7558 H   0  0  0  0  0  0  0  0  0  0  0  0
    4.9799    0.8487   -1.0759 H   0  0  0  0  0  0  0  0  0  0  0  0
    7.2853    0.4407   -1.5410 H   0  0  0  0  0  0  0  0  0  0  0  0
    8.6977   -2.9889   -2.0251 H   0  0  0  0  0  0  0  0  0  0  0  0
   10.7264   -2.7490   -2.6465 H   0  0  0  0  0  0  0  0  0  0  0  0
   11.5683   -1.6699   -1.5112 H   0  0  0  0  0  0  0  0  0  0  0  0
   11.1931   -1.1191   -3.1686 H   0  0  0  0  0  0  0  0  0  0  0  0
    6.5942   -3.8126   -1.5122 H   0  0  0  0  0  0  0  0  0  0  0  0
    2.5127   -2.6675   -0.6705 H   0  0  0  0  0  0  0  0  0  0  0  0
  1  2  1  0  0  0  0
  1 17  1  0  0  0  0
  1 18  1  0  0  0  0
  1 19  1  0  0  0  0
  2  3  1  0  0  0  0
  2 20  1  0  0  0  0
  2 21  1  0  0  0  0
  3  4  1  0  0  0  0
  4  5  2  0  0  0  0
  4 13  1  0  0  0  0
  5  6  1  0  0  0  0
  5 22  1  0  0  0  0
  6  7  2  0  0  0  0
  6 23  1  0  0  0  0
  7  8  1  0  0  0  0
  7 12  1  0  0  0  0
  8  9  1  0  0  0  0
  8 24  1  0  0  0  0
  9 10  2  0  0  0  0
  9 11  1  0  0  0  0
 11 25  1  0  0  0  0
 11 26  1  0  0  0  0
 11 27  1  0  0  0  0
 12 13  2  0  0  0  0
 12 28  1  0  0  0  0
 13 14  1  0  0  0  0
 14 15  2  0  0  0  0
 14 16  1  0  0  0  0
 16 29  1  0  0  0  0
M  END
$$$$

 OpenBabel12201709243D

 45 46  0  0  1  0  0  0  0  0999 V2000
    1.1598    0.1722   -0.0248 C   0  0  0  0  0  0  0  0  0  0  0  0
    2.6813    0.0663   -0.0502 C   0  0  3  0  0  0  0  0  0  0  0  0
    3.1577   -1.0853   -0.9600 C   0  0  0  0  0  0  0  0  0  0  0  0
    3.9749   -2.1339   -0.1906 C   0  0  0  0  0  0  0  0  0  0  0  0
    4.7103   -3.0952   -1.1261 C   0  0  0  0  0  0  0  0  0  0  0  0
    6.2154   -2.9017   -1.0486 C   0  0  0  0  0  0  0  0  0  0  0  0
    6.8731   -3.4376   -0.1552 O   0  0  0  0  0  0  0  0  0  0  0  0
    6.8696   -2.0611   -2.1320 C   0  0  0  0  0  0  0  0  0  0  0  0
    8.1006   -1.3178   -1.6058 C   0  0  0  0  0  0  0  0  0  0  0  0
    8.5985   -0.2076   -2.5449 C   0  0  0  0  0  0  0  0  0  0  0  0
    8.0867    1.1767   -2.2205 C   0  0  0  0  0  0  0  0  0  0  0  0
    6.8017    1.4644   -1.9582 C   0  0  0  0  0  0  0  0  0  0  0  0
    6.2264    2.7614   -1.5423 C   0  0  0  0  0  0  0  0  0  0  0  0
    6.8344    3.9697   -1.9186 C   0  0  0  0  0  0  0  0  0  0  0  0
    6.2307    5.1840   -1.5989 C   0  0  0  0  0  0  0  0  0  0  0  0
    6.8285    6.3723   -1.9018 O   0  0  0  0  0  0  0  0  0  0  0  0
    4.9987    5.2310   -0.9569 C   0  0  0  0  0  0  0  0  0  0  0  0
    4.3859    4.0430   -0.5650 C   0  0  0  0  0  0  0  0  0  0  0  0
    3.1956    4.0933    0.1054 O   0  0  0  0  0  0  0  0  0  0  0  0
    5.0032    2.8129   -0.8245 C   0  0  0  0  0  0  0  0  0  0  0  0
    4.4768    1.5859   -0.1945 C   0  0  0  0  0  0  0  0  0  0  0  0
    5.1819    0.8651    0.5006 O   0  0  0  0  0  0  0  0  0  0  0  0
    3.1990    1.3149   -0.5668 O   0  0  0  0  0  0  0  0  0  0  0  0
    0.7073   -0.7501    0.3548 H   0  0  0  0  0  0  0  0  0  0  0  0
    0.7572    0.3794   -1.0214 H   0  0  0  0  0  0  0  0  0  0  0  0
    0.8472    0.9999    0.6217 H   0  0  0  0  0  0  0  0  0  0  0  0
    3.0121   -0.0717    0.9878 H   0  0  0  0  0  0  0  0  0  0  0  0
    3.7588   -0.6872   -1.7857 H   0  0  0  0  0  0  0  0  0  0  0  0
    2.2998   -1.5952   -1.4168 H   0  0  0  0  0  0  0  0  0  0  0  0
    3.2846   -2.7071    0.4413 H   0  0  0  0  0  0  0  0  0  0  0  0
    4.6838   -1.6461    0.4867 H   0  0  0  0  0  0  0  0  0  0  0  0
    4.3841   -3.0023   -2.1676 H   0  0  0  0  0  0  0  0  0  0  0  0
    4.5083   -4.1316   -0.8313 H   0  0  0  0  0  0  0  0  0  0  0  0
    6.1253   -1.3654   -2.5237 H   0  0  0  0  0  0  0  0  0  0  0  0
    7.1520   -2.7316   -2.9513 H   0  0  0  0  0  0  0  0  0  0  0  0
    8.9075   -2.0514   -1.4785 H   0  0  0  0  0  0  0  0  0  0  0  0
    7.9064   -0.9106   -0.6051 H   0  0  0  0  0  0  0  0  0  0  0  0
    8.3928   -0.4456   -3.5955 H   0  0  0  0  0  0  0  0  0  0  0  0
    9.6920   -0.1666   -2.4529 H   0  0  0  0  0  0  0  0  0  0  0  0
    8.8515    1.9469   -2.1544 H   0  0  0  0  0  0  0  0  0  0  0  0
    6.0702    0.6671   -2.0293 H   0  0  0  0  0  0  0  0  0  0  0  0
    7.7744    3.9637   -2.4619 H   0  0  0  0  0  0  0  0  0  0  0  0
    7.7409    6.2011   -2.1912 H   0  0  0  0  0  0  0  0  0  0  0  0
    4.5547    6.1967   -0.7382 H   0  0  0  0  0  0  0  0  0  0  0  0
    2.8522    5.0024    0.0818 H   0  0  0  0  0  0  0  0  0  0  0  0
  1  2  1  0  0  0  0
  1 24  1  0  0  0  0
  1 25  1  0  0  0  0
  1 26  1  0  0  0  0
  2  3  1  0  0  0  0
  2 23  1  0  0  0  0
  2 27  1  0  0  0  0
  3  4  1  0  0  0  0
  3 28  1  0  0  0  0
  3 29  1  0  0  0  0
  4  5  1  0  0  0  0
  4 30  1  0  0  0  0
  4 31  1  0  0  0  0
  5  6  1  0  0  0  0
  5 32  1  0  0  0  0
  5 33  1  0  0  0  0
  6  7  2  0  0  0  0
  6  8  1  0  0  0  0
  8  9  1  0  0  0  0
  8 34  1  0  0  0  0
  8 35  1  0  0  0  0
  9 10  1  0  0  0  0
  9 36  1  0  0  0  0
  9 37  1  0  0  0  0
 10 11  1  0  0  0  0
 10 38  1  0  0  0  0
 10 39  1  0  0  0  0
 11 12  2  3  0  0  0
 11 40  1  0  0  0  0
 12 13  1  0  0  0  0
 12 41  1  0  0  0  0
 13 14  2  0  0  0  0
 13 20  1  0  0  0  0
 14 15  1  0  0  0  0
 14 42  1  0  0  0  0
 15 16  1  0  0  0  0
 15 17  2  0  0  0  0
 16 43  1  0  0  0  0
 17 18  1  0  0  0  0
 17 44  1  0  0  0  0
 18 19  1  0  0  0  0
 18 20  2  0  0  0  0
 19 45  1  0  0  0  0
 20 21  1  0  0  0  0
 21 22  2  0  0  0  0
 21 23  1  0  0  0  0
M  END
$$$$

 OpenBabel12201709243D

 16 16  0  0  0  0  0  0  0  0999 V2000
    1.4942   -0.8719    0.3178 C   0  0  0  0  0  0  0  0  0  0  0  0
    2.7544   -0.2479    0.0719 O   0  0  0  0  0  0  0  0  0  0  0  0
    3.2578   -0.3621   -1.2033 C   0  0  0  0  0  0  0  0  0  0  0  0
    3.6367    0.8403   -1.8376 C   0  0  0  0  0  0  0  0  0  0  0  0
    3.3003    2.3508   -1.0422 Cl  0  0  0  0  0  0  0  0  0  0  0  0
    4.2842    0.8189   -3.0869 C   0  0  0  0  0  0  0  0  0  0  0  0
    4.7865    2.3103   -3.8381 Cl  0  0  0  0  0  0  0  0  0  0  0  0
    4.5401   -0.4108   -3.7160 C   0  0  0  0  0  0  0  0  0  0  0  0
    5.3596   -0.4481   -5.2584 Cl  0  0  0  0  0  0  0  0  0  0  0  0
    4.1639   -1.6134   -3.0917 C   0  0  0  0  0  0  0  0  0  0  0  0
    4.4821   -3.1366   -3.8772 Cl  0  0  0  0  0  0  0  0  0  0  0  0
    3.5369   -1.5922   -1.8261 C   0  0  0  0  0  0  0  0  0  0  0  0
    3.2124   -3.0932   -1.0109 Cl  0  0  0  0  0  0  0  0  0  0  0  0
    0.9449   -0.2512    1.0319 H   0  0  0  0  0  0  0  0  0  0  0  0
    1.6455   -1.8402    0.7981 H   0  0  0  0  0  0  0  0  0  0  0  0
    0.8835   -0.9739   -0.5864 H   0  0  0  0  0  0  0  0  0  0  0  0
  1  2  1  0  0  0  0
  1 14  1  0  0  0  0
  1 15  1  0  0  0  0
  1 16  1  0  0  0  0
  2  3  1  0  0  0  0
  3  4  2  0  0  0  0
  3 12  1  0  0  0  0
  4  5  1  0  0  0  0
  4  6  1  0  0  0  0
  6  7  1  0  0  0  0
  6  8  2  0  0  0  0
  8  9  1  0  0  0  0
  8 10  1  0  0  0  0
 10 11  1  0  0  0  0
 10 12  2  0  0  0  0
 12 13  1  0  0  0  0
M  END
$$$$

 OpenBabel12201709243D

 26 27  0  0  0  0  0  0  0  0999 V2000
    1.0763    0.6139   -0.7007 O   0  0  0  0  0  0  0  0  0  0  0  0
    2.3119    0.2176   -0.2412 N   0  0  0  0  0  0  0  0  0  0  0  0
    2.6967   -0.8980   -0.5261 O   0  0  0  0  0  0  0  0  0  0  0  0
    3.0884    1.0633    0.6376 C   0  0  0  0  0  0  0  0  0  0  0  0
    2.5764    2.3032    1.0281 C   0  0  0  0  0  0  0  0  0  0  0  0
    3.2543    3.0513    1.9903 C   0  0  0  0  0  0  0  0  0  0  0  0
    4.4333    2.5654    2.5627 C   0  0  0  0  0  0  0  0  0  0  0  0
    4.9285    3.3207    3.5995 O   0  0  0  0  0  0  0  0  0  0  0  0
    5.6448    2.7426    4.6244 C   0  0  0  0  0  0  0  0  0  0  0  0
    6.6853    3.5526    5.1028 C   0  0  0  0  0  0  0  0  0  0  0  0
    7.5064    3.1200    6.1460 C   0  0  0  0  0  0  0  0  0  0  0  0
    7.3015    1.8634    6.7055 C   0  0  0  0  0  0  0  0  0  0  0  0
    8.3409    1.3046    7.9563 Cl  0  0  0  0  0  0  0  0  0  0  0  0
    6.2429    1.0669    6.2780 C   0  0  0  0  0  0  0  0  0  0  0  0
    5.3813    1.5250    5.2731 C   0  0  0  0  0  0  0  0  0  0  0  0
    3.9721    0.5622    4.9878 Cl  0  0  0  0  0  0  0  0  0  0  0  0
    5.0133    1.3956    2.0720 C   0  0  0  0  0  0  0  0  0  0  0  0
    4.3235    0.6232    1.1308 C   0  0  0  0  0  0  0  0  0  0  0  0
    0.8469   -0.2130   -1.1610 H   0  0  0  0  0  0  0  0  0  0  0  0
    1.6389    2.6766    0.6245 H   0  0  0  0  0  0  0  0  0  0  0  0
    2.8394    3.9986    2.3258 H   0  0  0  0  0  0  0  0  0  0  0  0
    6.8475    4.5364    4.6666 H   0  0  0  0  0  0  0  0  0  0  0  0
    8.2987    3.7674    6.5142 H   0  0  0  0  0  0  0  0  0  0  0  0
    6.0706    0.1007    6.7455 H   0  0  0  0  0  0  0  0  0  0  0  0
    5.9609    1.0293    2.4535 H   0  0  0  0  0  0  0  0  0  0  0  0
    4.7316   -0.3372    0.8184 H   0  0  0  0  0  0  0  0  0  0  0  0
  1  2  1  0  0  0  0
  1 19  1  0  0  0  0
  2  3  2  0  0  0  0
  2  4  1  0  0  0  0
  4  5  2  0  0  0  0
  4 18  1  0  0  0  0
  5  6  1  0  0  0  0
  5 20  1  0  0  0  0
  6  7  2  0  0  0  0
  6 21  1  0  0  0  0
  7  8  1  0  0  0  0
  7 17  1  0  0  0  0
  8  9  1  0  0  0  0
  9 10  2  0  0  0  0
  9 15  1  0  0  0  0
 10 11  1  0  0  0  0
 10 22  1  0  0  0  0
 11 12  2  0  0  0  0
 11 23  1  0  0  0  0
 12 13  1  0  0  0  0
 12 14  1  0  0  0  0
 14 15  2  0  0  0  0
 14 24  1  0  0  0  0
 15 16  1  0  0  0  0
 17 18  2  0  0  0  0
 17 25  1  0  0  0  0
 18 26  1  0  0  0  0
M  END
$$$$

 OpenBabel12201709243D

 22 21  0  0  0  0  0  0  0  0999 V2000
    1.2482   -0.2348   -1.6178 Na  0  0  0  0  0  0  0  0  0  0  0  0
    3.2518   -0.1574   -1.8347 O   0  0  0  0  0  0  0  0  0  0  0  0
    3.9737    0.4820   -0.8957 C   0  0  0  0  0  0  0  0  0  0  0  0
    3.4052    1.0024    0.0507 O   0  0  0  0  0  0  0  0  0  0  0  0
    5.4744    0.5488   -1.0012 C   0  0  0  0  0  0  0  0  0  0  0  0
    5.9310    1.2095   -2.2507 N   0  0  0  0  0  0  0  0  0  0  0  0
    5.4368    2.6086   -2.3100 C   0  0  0  0  0  0  0  0  0  0  0  0
    5.7984    3.2770   -3.6094 C   0  0  0  0  0  0  0  0  0  0  0  0
    5.4094    2.8140   -4.6700 O   0  0  0  0  0  0  0  0  0  0  0  0
    6.5691    4.3814   -3.6028 O   0  0  0  0  0  0  0  0  0  0  0  0
    7.1325    5.2697   -5.3185 Na  0  0  0  0  0  0  0  0  0  0  0  0
    7.4156    1.1899   -2.3234 C   0  0  0  0  0  0  0  0  0  0  0  0
    7.9669   -0.2076   -2.3825 C   0  0  0  0  0  0  0  0  0  0  0  0
    8.7386   -0.5979   -1.5206 O   0  0  0  0  0  0  0  0  0  0  0  0
    7.6230   -1.0331   -3.3890 O   0  0  0  0  0  0  0  0  0  0  0  0
    8.4116   -2.8873   -3.4365 Na  0  0  0  0  0  0  0  0  0  0  0  0
    5.8291   -0.5034   -0.9750 H   0  0  0  0  0  0  0  0  0  0  0  0
    5.8917    1.0754   -0.1126 H   0  0  0  0  0  0  0  0  0  0  0  0
    5.8469    3.1987   -1.4600 H   0  0  0  0  0  0  0  0  0  0  0  0
    4.3283    2.6352   -2.2446 H   0  0  0  0  0  0  0  0  0  0  0  0
    7.8505    1.7348   -1.4541 H   0  0  0  0  0  0  0  0  0  0  0  0
    7.7654    1.6921   -3.2502 H   0  0  0  0  0  0  0  0  0  0  0  0
  1  2  1  0  0  0  0
  2  3  1  0  0  0  0
  3  4  2  0  0  0  0
  3  5  1  0  0  0  0
  5  6  1  0  0  0  0
  5 17  1  0  0  0  0
  5 18  1  0  0  0  0
  6  7  1  0  0  0  0
  6 12  1  0  0  0  0
  7  8  1  0  0  0  0
  7 19  1  0  0  0  0
  7 20  1  0  0  0  0
  8  9  2  0  0  0  0
  8 10  1  0  0  0  0
 10 11  1  0  0  0  0
 12 13  1  0  0  0  0
 12 21  1  0  0  0  0
 12 22  1  0  0  0  0
 13 14  2  0  0  0  0
 13 15  1  0  0  0  0
 15 16  1  0  0  0  0
M  END
$$$$

 OpenBabel12201709243D

 27 26  0  0  0  0  0  0  0  0999 V2000
    0.8877   -0.0364    0.0013 C   0  0  0  0  0  0  0  0  0  0  0  0
    2.4088   -0.0120   -0.0139 C   0  0  0  0  0  0  0  0  0  0  0  0
    2.9339    1.1771   -0.8188 C   0  0  0  0  0  0  0  0  0  0  0  0
    4.4631    1.2173   -0.8501 C   0  0  0  0  0  0  0  0  0  0  0  0
    4.9646    2.4154   -1.6580 C   0  0  0  0  0  0  0  0  0  0  0  0
    6.4952    2.4721   -1.7050 C   0  0  0  0  0  0  0  0  0  0  0  0
    6.9805    3.6443   -2.4342 N   0  0  0  0  0  0  0  0  0  0  0  0
    7.1465    3.6017   -3.8250 N   0  0  0  0  0  0  0  0  0  0  0  0
    6.9174    2.4994   -4.3330 O   0  0  0  0  0  0  0  0  0  0  0  0
    7.1845    4.8372   -1.7515 C   0  0  0  0  0  0  0  0  0  0  0  0
    7.0057    4.9761   -0.5415 O   0  0  0  0  0  0  0  0  0  0  0  0
    7.5907    5.9158   -2.4829 N   0  0  0  0  0  0  0  0  0  0  0  0
    0.5245   -0.8915    0.5798 H   0  0  0  0  0  0  0  0  0  0  0  0
    0.4868   -0.1193   -1.0143 H   0  0  0  0  0  0  0  0  0  0  0  0
    0.4851    0.8755    0.4547 H   0  0  0  0  0  0  0  0  0  0  0  0
    2.7792   -0.9493   -0.4448 H   0  0  0  0  0  0  0  0  0  0  0  0
    2.7780    0.0406    1.0170 H   0  0  0  0  0  0  0  0  0  0  0  0
    2.5532    2.1085   -0.3833 H   0  0  0  0  0  0  0  0  0  0  0  0
    2.5504    1.1205   -1.8445 H   0  0  0  0  0  0  0  0  0  0  0  0
    4.8496    0.2902   -1.2888 H   0  0  0  0  0  0  0  0  0  0  0  0
    4.8514    1.2779    0.1747 H   0  0  0  0  0  0  0  0  0  0  0  0
    4.5743    3.3437   -1.2205 H   0  0  0  0  0  0  0  0  0  0  0  0
    4.5669    2.3639   -2.6799 H   0  0  0  0  0  0  0  0  0  0  0  0
    6.9084    1.5582   -2.1450 H   0  0  0  0  0  0  0  0  0  0  0  0
    6.8819    2.5178   -0.6788 H   0  0  0  0  0  0  0  0  0  0  0  0
    8.0060    5.8090   -3.3976 H   0  0  0  0  0  0  0  0  0  0  0  0
    7.8379    6.7400   -1.9514 H   0  0  0  0  0  0  0  0  0  0  0  0
  1  2  1  0  0  0  0
  1 13  1  0  0  0  0
  1 14  1  0  0  0  0
  1 15  1  0  0  0  0
  2  3  1  0  0  0  0
  2 16  1  0  0  0  0
  2 17  1  0  0  0  0
  3  4  1  0  0  0  0
  3 18  1  0  0  0  0
  3 19  1  0  0  0  0
  4  5  1  0  0  0  0
  4 20  1  0  0  0  0
  4 21  1  0  0  0  0
  5  6  1  0  0  0  0
  5 22  1  0  0  0  0
  5 23  1  0  0  0  0
  6  7  1  0  0  0  0
  6 24  1  0  0  0  0
  6 25  1  0  0  0  0
  7  8  1  0  0  0  0
  7 10  1  0  0  0  0
  8  9  2  0  0  0  0
 10 11  2  0  0  0  0
 10 12  1  0  0  0  0
 12 26  1  0  0  0  0
 12 27  1  0  0  0  0
M  END
$$$$

 OpenBabel12201709243D

 33 32  0  0  1  0  0  0  0  0999 V2000
    4.1480    7.0663    0.2718 C   0  0  0  0  0  0  0  0  0  0  0  0
    4.1571    5.6702   -0.1293 N   0  0  0  0  0  0  0  0  0  0  0  0
    3.6480    5.2592   -1.3628 N   0  0  0  0  0  0  0  0  0  0  0  0
    3.2513    6.1746   -2.0882 O   0  0  0  0  0  0  0  0  0  0  0  0
    4.5823    4.7286    0.8074 C   0  0  0  0  0  0  0  0  0  0  0  0
    4.8983    5.0504    1.9519 O   0  0  0  0  0  0  0  0  0  0  0  0
    4.6437    3.4328    0.3799 N   0  0  0  0  0  0  0  0  0  0  0  0
    5.1907    2.3731    1.2353 C   0  0  3  0  0  0  0  0  0  0  0  0
    4.4074    1.0981    0.9284 C   0  0  0  0  0  0  0  0  0  0  0  0
    3.2813    0.8738    1.3691 O   0  0  0  0  0  0  0  0  0  0  0  0
    6.6985    2.1329    0.9928 C   0  0  3  0  0  0  0  0  0  0  0  0
    6.8815    1.9039   -0.4117 O   0  0  0  0  0  0  0  0  0  0  0  0
    7.5769    3.2982    1.5333 C   0  0  3  0  0  0  0  0  0  0  0  0
    7.4153    3.4497    2.9465 O   0  0  0  0  0  0  0  0  0  0  0  0
    9.0673    3.1519    1.1913 C   0  0  3  0  0  0  0  0  0  0  0  0
    9.2181    3.1214   -0.2376 O   0  0  0  0  0  0  0  0  0  0  0  0
    9.8930    4.3141    1.7616 C   0  0  0  0  0  0  0  0  0  0  0  0
   11.2604    4.1281    1.3868 O   0  0  0  0  0  0  0  0  0  0  0  0
    3.8917    7.7493   -0.5402 H   0  0  0  0  0  0  0  0  0  0  0  0
    5.1439    7.3292    0.6418 H   0  0  0  0  0  0  0  0  0  0  0  0
    3.4333    7.1898    1.0926 H   0  0  0  0  0  0  0  0  0  0  0  0
    4.6377    3.2434   -0.6127 H   0  0  0  0  0  0  0  0  0  0  0  0
    5.0099    2.6119    2.2888 H   0  0  0  0  0  0  0  0  0  0  0  0
    4.8524    0.4304    0.1761 H   0  0  0  0  0  0  0  0  0  0  0  0
    6.9935    1.2122    1.5172 H   0  0  0  0  0  0  0  0  0  0  0  0
    7.7062    2.3659   -0.6905 H   0  0  0  0  0  0  0  0  0  0  0  0
    7.2385    4.2255    1.0526 H   0  0  0  0  0  0  0  0  0  0  0  0
    7.6983    2.6322    3.3988 H   0  0  0  0  0  0  0  0  0  0  0  0
    9.4624    2.2074    1.5810 H   0  0  0  0  0  0  0  0  0  0  0  0
   10.0292    3.6397   -0.4362 H   0  0  0  0  0  0  0  0  0  0  0  0
    9.8305    4.3823    2.8525 H   0  0  0  0  0  0  0  0  0  0  0  0
    9.5728    5.2649    1.3269 H   0  0  0  0  0  0  0  0  0  0  0  0
   11.6063    3.3776    1.9033 H   0  0  0  0  0  0  0  0  0  0  0  0
  1  2  1  0  0  0  0
  1 19  1  0  0  0  0
  1 20  1  0  0  0  0
  1 21  1  0  0  0  0
  2  3  1  0  0  0  0
  2  5  1  0  0  0  0
  3  4  2  0  0  0  0
  5  6  2  0  0  0  0
  5  7  1  0  0  0  0
  7  8  1  0  0  0  0
  7 22  1  0  0  0  0
  8  9  1  0  0  0  0
  8 11  1  0  0  0  0
  8 23  1  0  0  0  0
  9 10  2  0  0  0  0
  9 24  1  0  0  0  0
 11 12  1  0  0  0  0
 11 13  1  0  0  0  0
 11 25  1  0  0  0  0
 12 26  1  0  0  0  0
 13 14  1  0  0  0  0
 13 15  1  0  0  0  0
 13 27  1  0  0  0  0
 14 28  1  0  0  0  0
 15 16  1  0  0  0  0
 15 17  1  0  0  0  0
 15 29  1  0  0  0  0
 16 30  1  0  0  0  0
 17 18  1  0  0  0  0
 17 31  1  0  0  0  0
 17 32  1  0  0  0  0
 18 33  1  0  0  0  0
M  END
$$$$

 OpenBabel12201709243D

 14 14  0  0  0  0  0  0  0  0999 V2000
    0.9495   -0.0060   -0.0547 Cl  0  0  0  0  0  0  0  0  0  0  0  0
    2.6897    0.0293   -0.0516 C   0  0  0  0  0  0  0  0  0  0  0  0
    3.3703    1.2618   -0.0506 C   0  0  0  0  0  0  0  0  0  0  0  0
    2.4777    2.7573   -0.0523 Cl  0  0  0  0  0  0  0  0  0  0  0  0
    4.7758    1.2939   -0.0483 C   0  0  0  0  0  0  0  0  0  0  0  0
    5.4712    2.5519   -0.0487 C   0  0  0  0  0  0  0  0  0  0  0  0
    6.0347    3.5655   -0.0493 N   0  0  0  0  0  0  0  0  0  0  0  0
    5.4975    0.0861   -0.0459 C   0  0  0  0  0  0  0  0  0  0  0  0
    7.2388    0.1214   -0.0418 Cl  0  0  0  0  0  0  0  0  0  0  0  0
    4.8252   -1.1499   -0.0468 C   0  0  0  0  0  0  0  0  0  0  0  0
    5.5710   -2.3787   -0.0445 C   0  0  0  0  0  0  0  0  0  0  0  0
    6.1751   -3.3687   -0.0425 N   0  0  0  0  0  0  0  0  0  0  0  0
    3.4196   -1.1748   -0.0501 C   0  0  0  0  0  0  0  0  0  0  0  0
    2.5883   -2.7052   -0.0523 Cl  0  0  0  0  0  0  0  0  0  0  0  0
  1  2  1  0  0  0  0
  2  3  2  0  0  0  0
  2 13  1  0  0  0  0
  3  4  1  0  0  0  0
  3  5  1  0  0  0  0
  5  6  1  0  0  0  0
  5  8  2  0  0  0  0
  6  7  3  0  0  0  0
  8  9  1  0  0  0  0
  8 10  1  0  0  0  0
 10 11  1  0  0  0  0
 10 13  2  0  0  0  0
 11 12  3  0  0  0  0
 13 14  1  0  0  0  0
M  END
$$$$

 OpenBabel12201709243D

 25 24  0  0  0  0  0  0  0  0999 V2000
    1.1470   -1.8746    0.2556 C   0  0  0  0  0  0  0  0  0  0  0  0
    2.6048   -1.8027    0.2684 N   0  0  0  0  0  0  0  0  0  0  0  0
    3.3412   -2.5097    1.3046 C   0  0  0  0  0  0  0  0  0  0  0  0
    3.3331   -1.0373   -0.7154 C   0  0  0  0  0  0  0  0  0  0  0  0
    2.6600   -0.3577   -1.7948 S   0  0  0  0  0  0  0  0  0  0  0  0
    5.1081   -0.7529   -0.5452 S   0  0  0  0  0  0  0  0  0  0  0  0
    5.8213   -2.8128   -1.7192 Pb  0  0  0  0  0  0  0  0  0  0  0  0
    8.2767   -2.7731   -2.0864 S   0  0  0  0  0  0  0  0  0  0  0  0
    8.6945   -2.9569   -0.3393 C   0  0  0  0  0  0  0  0  0  0  0  0
    8.8819   -4.3072    0.1294 S   0  0  0  0  0  0  0  0  0  0  0  0
    8.9029   -1.8093    0.5221 N   0  0  0  0  0  0  0  0  0  0  0  0
    8.7264   -0.4517    0.0294 C   0  0  0  0  0  0  0  0  0  0  0  0
    9.3029   -1.9203    1.9233 C   0  0  0  0  0  0  0  0  0  0  0  0
    0.7485   -2.4959    1.0857 H   0  0  0  0  0  0  0  0  0  0  0  0
    0.7928   -2.3171   -0.6990 H   0  0  0  0  0  0  0  0  0  0  0  0
    0.7212   -0.8543    0.3692 H   0  0  0  0  0  0  0  0  0  0  0  0
    2.6696   -3.0547    2.0007 H   0  0  0  0  0  0  0  0  0  0  0  0
    3.9390   -1.7907    1.9034 H   0  0  0  0  0  0  0  0  0  0  0  0
    4.0175   -3.2568    0.8386 H   0  0  0  0  0  0  0  0  0  0  0  0
    8.4227   -0.4030   -1.0318 H   0  0  0  0  0  0  0  0  0  0  0  0
    9.6790    0.1102    0.1315 H   0  0  0  0  0  0  0  0  0  0  0  0
    7.9417    0.0617    0.6242 H   0  0  0  0  0  0  0  0  0  0  0  0
    9.4385   -2.9626    2.2701 H   0  0  0  0  0  0  0  0  0  0  0  0
    8.5321   -1.4511    2.5711 H   0  0  0  0  0  0  0  0  0  0  0  0
   10.2683   -1.3924    2.0786 H   0  0  0  0  0  0  0  0  0  0  0  0
  1  2  1  0  0  0  0
  1 14  1  0  0  0  0
  1 15  1  0  0  0  0
  1 16  1  0  0  0  0
  2  3  1  0  0  0  0
  2  4  1  0  0  0  0
  3 17  1  0  0  0  0
  3 18  1  0  0  0  0
  3 19  1  0  0  0  0
  4  5  2  0  0  0  0
  4  6  1  0  0  0  0
  6  7  1  0  0  0  0
  7  8  1  0  0  0  0
  8  9  1  0  0  0  0
  9 10  2  0  0  0  0
  9 11  1  0  0  0  0
 11 12  1  0  0  0  0
 11 13  1  0  0  0  0
 12 20  1  0  0  0  0
 12 21  1  0  0  0  0
 12 22  1  0  0  0  0
 13 23  1  0  0  0  0
 13 24  1  0  0  0  0
 13 25  1  0  0  0  0
M  END
$$$$

 OpenBabel12201709243D

 28 28  0  0  0  0  0  0  0  0999 V2000
    1.0860    0.1018    0.1703 C   0  0  0  0  0  0  0  0  0  0  0  0
    2.6051    0.0432    0.1290 C   0  0  0  0  0  0  0  0  0  0  0  0
    3.0633   -1.1500    0.8165 N   0  0  0  0  0  0  0  0  0  0  0  0
    4.4382   -1.3345    0.8615 C   0  0  0  0  0  0  0  0  0  0  0  0
    5.2460   -0.2911    0.8778 N   0  0  0  0  0  0  0  0  0  0  0  0
    6.5232   -0.6171    0.9733 C   0  0  0  0  0  0  0  0  0  0  0  0
    7.6287    0.6872    0.9951 Cl  0  0  0  0  0  0  0  0  0  0  0  0
    7.0567   -1.8271    1.0401 N   0  0  0  0  0  0  0  0  0  0  0  0
    6.1621   -2.7962    1.0096 C   0  0  0  0  0  0  0  0  0  0  0  0
    6.6785   -4.0703    1.1428 N   0  0  0  0  0  0  0  0  0  0  0  0
    6.0028   -5.1941    0.5151 C   0  0  0  0  0  0  0  0  0  0  0  0
    6.4299   -5.3220   -0.9468 C   0  0  0  0  0  0  0  0  0  0  0  0
    6.3872   -6.4596    1.2839 C   0  0  0  0  0  0  0  0  0  0  0  0
    4.8517   -2.5978    0.9017 N   0  0  0  0  0  0  0  0  0  0  0  0
    0.7255    1.0014   -0.3383 H   0  0  0  0  0  0  0  0  0  0  0  0
    0.7219    0.1234    1.2031 H   0  0  0  0  0  0  0  0  0  0  0  0
    0.6444   -0.7705   -0.3228 H   0  0  0  0  0  0  0  0  0  0  0  0
    2.9985    0.9480    0.6078 H   0  0  0  0  0  0  0  0  0  0  0  0
    2.9371    0.0340   -0.9161 H   0  0  0  0  0  0  0  0  0  0  0  0
    2.6461   -2.0265    0.5255 H   0  0  0  0  0  0  0  0  0  0  0  0
    7.6848   -4.0289    1.0322 H   0  0  0  0  0  0  0  0  0  0  0  0
    4.9121   -5.0923    0.5687 H   0  0  0  0  0  0  0  0  0  0  0  0
    7.5167   -5.4361   -1.0365 H   0  0  0  0  0  0  0  0  0  0  0  0
    6.1423   -4.4364   -1.5225 H   0  0  0  0  0  0  0  0  0  0  0  0
    5.9610   -6.1948   -1.4141 H   0  0  0  0  0  0  0  0  0  0  0  0
    7.4693   -6.6329    1.2528 H   0  0  0  0  0  0  0  0  0  0  0  0
    5.8893   -7.3397    0.8645 H   0  0  0  0  0  0  0  0  0  0  0  0
    6.0977   -6.3753    2.3372 H   0  0  0  0  0  0  0  0  0  0  0  0
  1  2  1  0  0  0  0
  1 15  1  0  0  0  0
  1 16  1  0  0  0  0
  1 17  1  0  0  0  0
  2  3  1  0  0  0  0
  2 18  1  0  0  0  0
  2 19  1  0  0  0  0
  3  4  1  0  0  0  0
  3 20  1  0  0  0  0
  4  5  2  0  0  0  0
  4 14  1  0  0  0  0
  5  6  1  0  0  0  0
  6  7  1  0  0  0  0
  6  8  2  0  0  0  0
  8  9  1  0  0  0  0
  9 10  1  0  0  0  0
  9 14  2  0  0  0  0
 10 11  1  0  0  0  0
 10 21  1  0  0  0  0
 11 12  1  0  0  0  0
 11 13  1  0  0  0  0
 11 22  1  0  0  0  0
 12 23  1  0  0  0  0
 12 24  1  0  0  0  0
 12 25  1  0  0  0  0
 13 26  1  0  0  0  0
 13 27  1  0  0  0  0
 13 28  1  0  0  0  0
M  END
$$$$

 OpenBabel12201709243D

 16 16  0  0  0  0  0  0  0  0999 V2000
    1.0152   -0.0737   -0.2258 N   0  0  0  0  0  0  0  0  0  0  0  0
    2.4209   -0.0874   -0.0442 C   0  0  0  0  0  0  0  0  0  0  0  0
    3.1491    1.1188   -0.0658 C   0  0  0  0  0  0  0  0  0  0  0  0
    2.3089    2.6332   -0.1020 Cl  0  0  0  0  0  0  0  0  0  0  0  0
    4.5383    1.0511   -0.0335 C   0  0  0  0  0  0  0  0  0  0  0  0
    5.5562    2.4384   -0.0232 Cl  0  0  0  0  0  0  0  0  0  0  0  0
    5.2476   -0.1007   -0.0100 N   0  0  0  0  0  0  0  0  0  0  0  0
    4.5248   -1.2651   -0.0333 C   0  0  0  0  0  0  0  0  0  0  0  0
    5.3985   -2.4862   -0.0251 C   0  0  0  0  0  0  0  0  0  0  0  0
    5.0372   -3.6461   -0.0286 O   0  0  0  0  0  0  0  0  0  0  0  0
    6.7079   -2.1229   -0.0068 O   0  0  0  0  0  0  0  0  0  0  0  0
    3.1310   -1.3104   -0.0652 C   0  0  0  0  0  0  0  0  0  0  0  0
    2.2256   -2.7862   -0.0985 Cl  0  0  0  0  0  0  0  0  0  0  0  0
    0.5536    0.7784    0.0883 H   0  0  0  0  0  0  0  0  0  0  0  0
    0.5439   -0.9253    0.0778 H   0  0  0  0  0  0  0  0  0  0  0  0
    6.7890   -1.1405   -0.0048 H   0  0  0  0  0  0  0  0  0  0  0  0
  1  2  1  0  0  0  0
  1 14  1  0  0  0  0
  1 15  1  0  0  0  0
  2  3  2  0  0  0  0
  2 12  1  0  0  0  0
  3  4  1  0  0  0  0
  3  5  1  0  0  0  0
  5  6  1  0  0  0  0
  5  7  2  0  0  0  0
  7  8  1  0  0  0  0
  8  9  1  0  0  0  0
  8 12  2  0  0  0  0
  9 10  2  0  0  0  0
  9 11  1  0  0  0  0
 11 16  1  0  0  0  0
 12 13  1  0  0  0  0
M  END
$$$$

 OpenBabel12201709243D

 43 45  0  0  1  0  0  0  0  0999 V2000
    1.2791   -0.2830    0.0861 O   0  0  0  0  0  0  0  0  0  0  0  0
    2.5999   -0.0489    0.1644 C   0  0  0  0  0  0  0  0  0  0  0  0
    3.1296    1.0421    0.1370 O   0  0  0  0  0  0  0  0  0  0  0  0
    3.3735   -1.3284    0.3277 C   0  0  0  0  0  0  0  0  0  0  0  0
    2.8015   -2.4980    0.3890 N   0  0  0  0  0  0  0  0  0  0  0  0
    3.8498   -3.4010    0.5247 N   0  0  0  0  0  0  0  0  0  0  0  0
    5.1270   -2.7941    0.5031 C   0  0  0  0  0  0  0  0  0  0  0  0
    6.2365   -3.3032    0.5178 O   0  0  0  0  0  0  0  0  0  0  0  0
    4.8438   -1.3171    0.5197 C   0  0  3  0  0  0  0  0  0  0  0  0
    5.5145   -0.6475   -0.5907 N   0  0  0  0  0  0  0  0  0  0  0  0
    6.6668   -0.2902   -0.2594 N   0  0  0  0  0  0  0  0  0  0  0  0
    7.2694    0.5687   -1.1958 C   0  0  0  0  0  0  0  0  0  0  0  0
    8.1545    1.5404   -0.7051 C   0  0  0  0  0  0  0  0  0  0  0  0
    8.7394    2.4789   -1.5575 C   0  0  0  0  0  0  0  0  0  0  0  0
    8.4338    2.4410   -2.9179 C   0  0  0  0  0  0  0  0  0  0  0  0
    7.6025    1.4464   -3.4391 C   0  0  0  0  0  0  0  0  0  0  0  0
    7.0307    0.5088   -2.5770 C   0  0  0  0  0  0  0  0  0  0  0  0
    9.0324    3.7077   -4.0041 S   0  0  0  0  0  0  0  0  0  0  0  0
    9.7765    4.6659   -3.2145 O   0  0  0  0  0  0  0  0  0  0  0  0
    9.5920    3.0644   -5.1701 O   0  0  0  0  0  0  0  0  0  0  0  0
    7.6823    4.4775   -4.4403 O   0  0  0  0  0  0  0  0  0  0  0  0
    3.5667   -4.7797    0.6956 C   0  0  0  0  0  0  0  0  0  0  0  0
    4.5988   -5.7311    0.7655 C   0  0  0  0  0  0  0  0  0  0  0  0
    4.3282   -7.0859    0.9599 C   0  0  0  0  0  0  0  0  0  0  0  0
    3.0083   -7.5099    1.0866 C   0  0  0  0  0  0  0  0  0  0  0  0
    1.9599   -6.5922    1.0412 C   0  0  0  0  0  0  0  0  0  0  0  0
    2.2419   -5.2338    0.8372 C   0  0  0  0  0  0  0  0  0  0  0  0
    2.6830   -9.2299    1.3500 S   0  0  0  0  0  0  0  0  0  0  0  0
    1.5048   -9.3345    2.1858 O   0  0  0  0  0  0  0  0  0  0  0  0
    2.7926   -9.8937    0.0727 O   0  0  0  0  0  0  0  0  0  0  0  0
    3.9002   -9.7277    2.2859 O   0  0  0  0  0  0  0  0  0  0  0  0
    1.0851   -1.2453    0.1355 H   0  0  0  0  0  0  0  0  0  0  0  0
    5.0811   -0.8967    1.5030 H   0  0  0  0  0  0  0  0  0  0  0  0
    8.3696    1.5795    0.3612 H   0  0  0  0  0  0  0  0  0  0  0  0
    9.4016    3.2386   -1.1481 H   0  0  0  0  0  0  0  0  0  0  0  0
    7.3832    1.4077   -4.5043 H   0  0  0  0  0  0  0  0  0  0  0  0
    6.3784   -0.2596   -2.9839 H   0  0  0  0  0  0  0  0  0  0  0  0
    7.6074    5.2877   -3.8932 H   0  0  0  0  0  0  0  0  0  0  0  0
    5.6446   -5.4517    0.6666 H   0  0  0  0  0  0  0  0  0  0  0  0
    5.1514   -7.7965    1.0031 H   0  0  0  0  0  0  0  0  0  0  0  0
    0.9291   -6.9188    1.1645 H   0  0  0  0  0  0  0  0  0  0  0  0
    1.4107   -4.5335    0.8088 H   0  0  0  0  0  0  0  0  0  0  0  0
    3.5250   -9.9571    3.1628 H   0  0  0  0  0  0  0  0  0  0  0  0
  1  2  1  0  0  0  0
  1 32  1  0  0  0  0
  2  3  2  0  0  0  0
  2  4  1  0  0  0  0
  4  5  2  0  0  0  0
  4  9  1  0  0  0  0
  5  6  1  0  0  0  0
  6  7  1  0  0  0  0
  6 22  1  0  0  0  0
  7  8  2  0  0  0  0
  7  9  1  0  0  0  0
  9 10  1  0  0  0  0
  9 33  1  0  0  0  0
 10 11  2  3  0  0  0
 11 12  1  0  0  0  0
 12 13  2  0  0  0  0
 12 17  1  0  0  0  0
 13 14  1  0  0  0  0
 13 34  1  0  0  0  0
 14 15  2  0  0  0  0
 14 35  1  0  0  0  0
 15 16  1  0  0  0  0
 15 18  1  0  0  0  0
 16 17  2  0  0  0  0
 16 36  1  0  0  0  0
 17 37  1  0  0  0  0
 18 19  2  0  0  0  0
 18 20  2  0  0  0  0
 18 21  1  0  0  0  0
 21 38  1  0  0  0  0
 22 23  2  0  0  0  0
 22 27  1  0  0  0  0
 23 24  1  0  0  0  0
 23 39  1  0  0  0  0
 24 25  2  0  0  0  0
 24 40  1  0  0  0  0
 25 26  1  0  0  0  0
 25 28  1  0  0  0  0
 26 27  2  0  0  0  0
 26 41  1  0  0  0  0
 27 42  1  0  0  0  0
 28 29  2  0  0  0  0
 28 30  2  0  0  0  0
 28 31  1  0  0  0  0
 31 43  1  0  0  0  0
M  END
$$$$

 OpenBabel12201709243D

 39 41  0  0  0  0  0  0  0  0999 V2000
    0.9549    0.1721   -0.0382 O   0  0  0  0  0  0  0  0  0  0  0  0
    2.3038    0.1137    0.0066 C   0  0  0  0  0  0  0  0  0  0  0  0
    3.0204    1.3121   -0.0186 C   0  0  0  0  0  0  0  0  0  0  0  0
    4.4022    1.3118    0.0290 C   0  0  0  0  0  0  0  0  0  0  0  0
    5.1103    0.1109    0.0882 C   0  0  0  0  0  0  0  0  0  0  0  0
    6.5139    0.1695    0.1273 C   0  0  0  0  0  0  0  0  0  0  0  0
    7.2667   -0.9956    0.1755 C   0  0  0  0  0  0  0  0  0  0  0  0
    6.6324   -2.2247    0.1801 C   0  0  0  0  0  0  0  0  0  0  0  0
    5.2372   -2.3291    0.1446 C   0  0  0  0  0  0  0  0  0  0  0  0
    4.4250   -1.1467    0.1044 C   0  0  0  0  0  0  0  0  0  0  0  0
    2.9834   -1.1379    0.0767 C   0  0  0  0  0  0  0  0  0  0  0  0
    2.2371   -2.3623    0.1406 N   0  0  0  0  0  0  0  0  0  0  0  0
    0.9852   -2.3929    0.1550 N   0  0  0  0  0  0  0  0  0  0  0  0
    0.2320   -3.5996    0.2731 C   0  0  0  0  0  0  0  0  0  0  0  0
    0.8405   -4.8592    0.4118 C   0  0  0  0  0  0  0  0  0  0  0  0
    0.0764   -6.0186    0.5378 C   0  0  0  0  0  0  0  0  0  0  0  0
   -1.3149   -5.9398    0.5274 C   0  0  0  0  0  0  0  0  0  0  0  0
   -1.9391   -4.6973    0.3908 C   0  0  0  0  0  0  0  0  0  0  0  0
   -1.1704   -3.5316    0.2649 C   0  0  0  0  0  0  0  0  0  0  0  0
    4.6240   -4.0181    0.1238 S   0  0  0  0  0  0  0  0  0  0  0  0
    5.7619   -5.0496    0.1190 O   0  0  0  0  0  0  0  0  0  0  0  0
    3.9166   -4.3870    1.4356 O   0  0  0  0  0  0  0  0  0  0  0  0
    3.6158   -4.5069   -1.1776 O   0  0  0  0  0  0  0  0  0  0  0  0
    4.7932   -4.2422   -2.8184 Na  0  0  0  0  0  0  0  0  0  0  0  0
    9.0554   -0.9409    0.2159 S   0  0  0  0  0  0  0  0  0  0  0  0
    9.6030   -1.6713    1.4515 O   0  0  0  0  0  0  0  0  0  0  0  0
    9.6907   -1.7524   -0.9233 O   0  0  0  0  0  0  0  0  0  0  0  0
    9.8526    0.5771    0.2085 O   0  0  0  0  0  0  0  0  0  0  0  0
    9.2615    1.4216   -1.5442 Na  0  0  0  0  0  0  0  0  0  0  0  0
    0.4693    1.0082   -0.1009 H   0  0  0  0  0  0  0  0  0  0  0  0
    2.4985    2.2605   -0.0696 H   0  0  0  0  0  0  0  0  0  0  0  0
    4.9232    2.2628    0.0139 H   0  0  0  0  0  0  0  0  0  0  0  0
    7.0256    1.1245    0.1174 H   0  0  0  0  0  0  0  0  0  0  0  0
    7.2492   -3.1128    0.2075 H   0  0  0  0  0  0  0  0  0  0  0  0
    1.8990   -4.9640    0.4273 H   0  0  0  0  0  0  0  0  0  0  0  0
    0.5678   -6.9778    0.6447 H   0  0  0  0  0  0  0  0  0  0  0  0
   -1.9041   -6.8422    0.6265 H   0  0  0  0  0  0  0  0  0  0  0  0
   -3.0196   -4.6402    0.3840 H   0  0  0  0  0  0  0  0  0  0  0  0
   -1.6686   -2.5761    0.1627 H   0  0  0  0  0  0  0  0  0  0  0  0
  1  2  1  0  0  0  0
  1 30  1  0  0  0  0
  2  3  2  0  0  0  0
  2 11  1  0  0  0  0
  3  4  1  0  0  0  0
  3 31  1  0  0  0  0
  4  5  2  0  0  0  0
  4 32  1  0  0  0  0
  5  6  1  0  0  0  0
  5 10  1  0  0  0  0
  6  7  2  0  0  0  0
  6 33  1  0  0  0  0
  7  8  1  0  0  0  0
  7 25  1  0  0  0  0
  8  9  2  0  0  0  0
  8 34  1  0  0  0  0
  9 10  1  0  0  0  0
  9 20  1  0  0  0  0
 10 11  2  0  0  0  0
 11 12  1  0  0  0  0
 12 13  2  3  0  0  0
 13 14  1  0  0  0  0
 14 15  2  0  0  0  0
 14 19  1  0  0  0  0
 15 16  1  0  0  0  0
 15 35  1  0  0  0  0
 16 17  2  0  0  0  0
 16 36  1  0  0  0  0
 17 18  1  0  0  0  0
 17 37  1  0  0  0  0
 18 19  2  0  0  0  0
 18 38  1  0  0  0  0
 19 39  1  0  0  0  0
 20 21  2  0  0  0  0
 20 22  2  0  0  0  0
 20 23  1  0  0  0  0
 23 24  1  0  0  0  0
 25 26  2  0  0  0  0
 25 27  2  0  0  0  0
 25 28  1  0  0  0  0
 28 29  1  0  0  0  0
M  END
$$$$

 OpenBabel12201709243D

 79 84  0  0  0  0  0  0  0  0999 V2000
    3.9063   -1.8610    5.6112 N   0  0  0  0  0  0  0  0  0  0  0  0
    4.9905   -1.6799    4.7181 C   0  0  0  0  0  0  0  0  0  0  0  0
    5.8009   -0.5433    4.8196 C   0  0  0  0  0  0  0  0  0  0  0  0
    6.8521   -0.3493    3.9256 C   0  0  0  0  0  0  0  0  0  0  0  0
    7.1067   -1.2922    2.9154 C   0  0  0  0  0  0  0  0  0  0  0  0
    8.1420   -1.0913    1.9749 N   0  0  0  0  0  0  0  0  0  0  0  0
    8.8543   -0.0699    1.9741 N   0  0  0  0  0  0  0  0  0  0  0  0
    9.8571    0.1111    0.9968 C   0  0  0  0  0  0  0  0  0  0  0  0
   10.0107   -0.7941   -0.0591 C   0  0  0  0  0  0  0  0  0  0  0  0
   11.0248   -0.6232   -0.9917 C   0  0  0  0  0  0  0  0  0  0  0  0
   11.9308    0.4592   -0.8994 C   0  0  0  0  0  0  0  0  0  0  0  0
   11.7384    1.3790    0.1618 C   0  0  0  0  0  0  0  0  0  0  0  0
   10.7153    1.2034    1.0928 C   0  0  0  0  0  0  0  0  0  0  0  0
   13.0928    0.5807   -1.8506 C   0  0  0  0  0  0  0  0  0  0  0  0
   13.3131   -0.3804   -2.8691 C   0  0  0  0  0  0  0  0  0  0  0  0
   14.4391   -0.3243   -3.6819 C   0  0  0  0  0  0  0  0  0  0  0  0
   15.3783    0.6943   -3.5073 C   0  0  0  0  0  0  0  0  0  0  0  0
   16.5447    0.7675   -4.2911 N   0  0  0  0  0  0  0  0  0  0  0  0
   16.8180   -0.0845   -5.1491 N   0  0  0  0  0  0  0  0  0  0  0  0
   17.9453    0.0334   -6.0084 C   0  0  0  0  0  0  0  0  0  0  0  0
   18.4718    1.2926   -6.4653 C   0  0  0  0  0  0  0  0  0  0  0  0
   17.7759    2.5022   -6.1352 N   0  0  0  0  0  0  0  0  0  0  0  0
   19.6329    1.3016   -7.3265 C   0  0  0  0  0  0  0  0  0  0  0  0
   20.3090    2.4713   -7.8302 C   0  0  0  0  0  0  0  0  0  0  0  0
   20.0167    3.7431   -7.4650 O   0  0  0  0  0  0  0  0  0  0  0  0
   21.4085    2.3439   -8.7256 C   0  0  0  0  0  0  0  0  0  0  0  0
   22.0686    3.4986   -9.2444 N   0  0  0  0  0  0  0  0  0  0  0  0
   21.4850    4.5997   -9.2929 N   0  0  0  0  0  0  0  0  0  0  0  0
   22.1261    5.8168   -9.6101 C   0  0  0  0  0  0  0  0  0  0  0  0
   23.5133    5.9044   -9.7998 C   0  0  0  0  0  0  0  0  0  0  0  0
   24.1038    7.1467  -10.0540 C   0  0  0  0  0  0  0  0  0  0  0  0
   23.3124    8.2980  -10.1245 C   0  0  0  0  0  0  0  0  0  0  0  0
   21.9310    8.2124   -9.9442 C   0  0  0  0  0  0  0  0  0  0  0  0
   21.3405    6.9742   -9.6853 C   0  0  0  0  0  0  0  0  0  0  0  0
   21.8895    1.0763   -9.0743 C   0  0  0  0  0  0  0  0  0  0  0  0
   21.2656   -0.0535   -8.5785 C   0  0  0  0  0  0  0  0  0  0  0  0
   20.1603    0.0334   -7.7275 C   0  0  0  0  0  0  0  0  0  0  0  0
   19.5968   -1.1627   -7.2918 C   0  0  0  0  0  0  0  0  0  0  0  0
   18.5069   -1.1713   -6.4470 C   0  0  0  0  0  0  0  0  0  0  0  0
   17.8233   -2.7689   -5.9584 S   0  0  0  0  0  0  0  0  0  0  0  0
   17.8058   -2.9276   -4.4309 O   0  0  0  0  0  0  0  0  0  0  0  0
   16.3304   -2.9098   -6.2979 O   0  0  0  0  0  0  0  0  0  0  0  0
   18.5643   -4.2098   -6.5320 O   0  0  0  0  0  0  0  0  0  0  0  0
   18.3160   -4.1934   -8.5560 Na  0  0  0  0  0  0  0  0  0  0  0  0
   23.3073    0.8662  -10.1622 S   0  0  0  0  0  0  0  0  0  0  0  0
   24.3732    1.9607  -10.0025 O   0  0  0  0  0  0  0  0  0  0  0  0
   24.1159   -0.3785   -9.7634 O   0  0  0  0  0  0  0  0  0  0  0  0
   23.0486    0.6912  -11.8478 O   0  0  0  0  0  0  0  0  0  0  0  0
   22.1929    2.4548  -12.3817 Na  0  0  0  0  0  0  0  0  0  0  0  0
   15.1683    1.6711   -2.5410 C   0  0  0  0  0  0  0  0  0  0  0  0
   14.0442    1.6216   -1.7224 C   0  0  0  0  0  0  0  0  0  0  0  0
    6.3089   -2.4471    2.8186 C   0  0  0  0  0  0  0  0  0  0  0  0
    6.5526   -3.4225    1.8151 N   0  0  0  0  0  0  0  0  0  0  0  0
    5.2540   -2.6316    3.7211 C   0  0  0  0  0  0  0  0  0  0  0  0
    3.6983   -1.1546    6.3320 H   0  0  0  0  0  0  0  0  0  0  0  0
    3.2955   -2.6866    5.5339 H   0  0  0  0  0  0  0  0  0  0  0  0
    5.6148    0.1979    5.5859 H   0  0  0  0  0  0  0  0  0  0  0  0
    7.4607    0.5410    4.0193 H   0  0  0  0  0  0  0  0  0  0  0  0
    9.3539   -1.6491   -0.1602 H   0  0  0  0  0  0  0  0  0  0  0  0
   11.0773   -1.3756   -1.7570 H   0  0  0  0  0  0  0  0  0  0  0  0
   12.3722    2.2344    0.3181 H   0  0  0  0  0  0  0  0  0  0  0  0
   10.6054    1.9116    1.9051 H   0  0  0  0  0  0  0  0  0  0  0  0
   12.6529   -1.2071   -3.0572 H   0  0  0  0  0  0  0  0  0  0  0  0
   14.5806   -1.0881   -4.4367 H   0  0  0  0  0  0  0  0  0  0  0  0
   16.9774    2.5701   -5.5039 H   0  0  0  0  0  0  0  0  0  0  0  0
   17.8157    3.3310   -6.7257 H   0  0  0  0  0  0  0  0  0  0  0  0
   19.6323    4.0672   -6.6472 H   0  0  0  0  0  0  0  0  0  0  0  0
   24.1378    5.0220   -9.7302 H   0  0  0  0  0  0  0  0  0  0  0  0
   25.1746    7.2154  -10.1858 H   0  0  0  0  0  0  0  0  0  0  0  0
   23.7729    9.2594  -10.3147 H   0  0  0  0  0  0  0  0  0  0  0  0
   21.3178    9.1027   -9.9945 H   0  0  0  0  0  0  0  0  0  0  0  0
   20.2687    6.9152   -9.5345 H   0  0  0  0  0  0  0  0  0  0  0  0
   21.6518   -1.0291   -8.8660 H   0  0  0  0  0  0  0  0  0  0  0  0
   20.0062   -2.1138   -7.6182 H   0  0  0  0  0  0  0  0  0  0  0  0
   15.8913    2.4675   -2.4105 H   0  0  0  0  0  0  0  0  0  0  0  0
   13.9683    2.4020   -0.9864 H   0  0  0  0  0  0  0  0  0  0  0  0
    7.3227   -3.3198    1.1392 H   0  0  0  0  0  0  0  0  0  0  0  0
    5.9620   -4.2656    1.7471 H   0  0  0  0  0  0  0  0  0  0  0  0
    4.6283   -3.5146    3.6459 H   0  0  0  0  0  0  0  0  0  0  0  0
  1  2  1  0  0  0  0
  1 55  1  0  0  0  0
  1 56  1  0  0  0  0
  2  3  2  0  0  0  0
  2 54  1  0  0  0  0
  3  4  1  0  0  0  0
  3 57  1  0  0  0  0
  4  5  2  0  0  0  0
  4 58  1  0  0  0  0
  5  6  1  0  0  0  0
  5 52  1  0  0  0  0
  6  7  2  3  0  0  0
  7  8  1  0  0  0  0
  8  9  2  0  0  0  0
  8 13  1  0  0  0  0
  9 10  1  0  0  0  0
  9 59  1  0  0  0  0
 10 11  2  0  0  0  0
 10 60  1  0  0  0  0
 11 12  1  0  0  0  0
 11 14  1  0  0  0  0
 12 13  2  0  0  0  0
 12 61  1  0  0  0  0
 13 62  1  0  0  0  0
 14 15  2  0  0  0  0
 14 51  1  0  0  0  0
 15 16  1  0  0  0  0
 15 63  1  0  0  0  0
 16 17  2  0  0  0  0
 16 64  1  0  0  0  0
 17 18  1  0  0  0  0
 17 50  1  0  0  0  0
 18 19  2  3  0  0  0
 19 20  1  0  0  0  0
 20 21  2  0  0  0  0
 20 39  1  0  0  0  0
 21 22  1  0  0  0  0
 21 23  1  0  0  0  0
 22 65  1  0  0  0  0
 22 66  1  0  0  0  0
 23 24  2  0  0  0  0
 23 37  1  0  0  0  0
 24 25  1  0  0  0  0
 24 26  1  0  0  0  0
 25 67  1  0  0  0  0
 26 27  1  0  0  0  0
 26 35  2  0  0  0  0
 27 28  2  3  0  0  0
 28 29  1  0  0  0  0
 29 30  2  0  0  0  0
 29 34  1  0  0  0  0
 30 31  1  0  0  0  0
 30 68  1  0  0  0  0
 31 32  2  0  0  0  0
 31 69  1  0  0  0  0
 32 33  1  0  0  0  0
 32 70  1  0  0  0  0
 33 34  2  0  0  0  0
 33 71  1  0  0  0  0
 34 72  1  0  0  0  0
 35 36  1  0  0  0  0
 35 45  1  0  0  0  0
 36 37  2  0  0  0  0
 36 73  1  0  0  0  0
 37 38  1  0  0  0  0
 38 39  2  0  0  0  0
 38 74  1  0  0  0  0
 39 40  1  0  0  0  0
 40 41  2  0  0  0  0
 40 42  2  0  0  0  0
 40 43  1  0  0  0  0
 43 44  1  0  0  0  0
 45 46  2  0  0  0  0
 45 47  2  0  0  0  0
 45 48  1  0  0  0  0
 48 49  1  0  0  0  0
 50 51  2  0  0  0  0
 50 75  1  0  0  0  0
 51 76  1  0  0  0  0
 52 53  1  0  0  0  0
 52 54  2  0  0  0  0
 53 77  1  0  0  0  0
 53 78  1  0  0  0  0
 54 79  1  0  0  0  0
M  END
$$$$

 OpenBabel12201709243D

 15 15  0  0  0  0  0  0  0  0999 V2000
    0.9835   -0.0712    0.1386 C   0  0  0  0  0  0  0  0  0  0  0  0
    2.4943   -0.0210   -0.0289 C   0  0  0  0  0  0  0  0  0  0  0  0
    2.9239   -0.0219   -1.4900 C   0  0  0  0  0  0  0  0  0  0  0  0
    3.2156    1.0015    0.8669 C   0  0  0  0  0  0  0  0  0  0  0  0
    3.9189   -0.0676    1.5544 O   0  0  0  0  0  0  0  0  0  0  0  0
    3.2730   -1.0339    0.8510 C   0  0  0  0  0  0  0  0  0  0  0  0
    3.3691   -2.2340    0.9577 O   0  0  0  0  0  0  0  0  0  0  0  0
    0.5080    0.7864   -0.3501 H   0  0  0  0  0  0  0  0  0  0  0  0
    0.6932   -0.0540    1.1952 H   0  0  0  0  0  0  0  0  0  0  0  0
    0.5703   -0.9842   -0.3035 H   0  0  0  0  0  0  0  0  0  0  0  0
    2.5173    0.8480   -2.0163 H   0  0  0  0  0  0  0  0  0  0  0  0
    2.5689   -0.9238   -2.0004 H   0  0  0  0  0  0  0  0  0  0  0  0
    4.0140    0.0080   -1.5891 H   0  0  0  0  0  0  0  0  0  0  0  0
    2.5864    1.5665    1.5623 H   0  0  0  0  0  0  0  0  0  0  0  0
    3.9100    1.6836    0.3675 H   0  0  0  0  0  0  0  0  0  0  0  0
  1  2  1  0  0  0  0
  1  8  1  0  0  0  0
  1  9  1  0  0  0  0
  1 10  1  0  0  0  0
  2  3  1  0  0  0  0
  2  4  1  0  0  0  0
  2  6  1  0  0  0  0
  3 11  1  0  0  0  0
  3 12  1  0  0  0  0
  3 13  1  0  0  0  0
  4  5  1  0  0  0  0
  4 14  1  0  0  0  0
  4 15  1  0  0  0  0
  5  6  1  0  0  0  0
  6  7  2  0  0  0  0
M  END
$$$$

 OpenBabel12201709243D

 14 14  0  0  0  0  0  0  0  0999 V2000
    1.1647    0.0392    0.2619 N   0  0  0  0  0  0  0  0  0  0  0  0
    2.5348    0.0529   -0.0195 C   0  0  0  0  0  0  0  0  0  0  0  0
    3.2357    1.2624   -0.0427 C   0  0  0  0  0  0  0  0  0  0  0  0
    4.6244    1.2804   -0.2028 C   0  0  0  0  0  0  0  0  0  0  0  0
    5.3238    0.0802   -0.2943 C   0  0  0  0  0  0  0  0  0  0  0  0
    7.0327    0.0970   -0.4905 Cl  0  0  0  0  0  0  0  0  0  0  0  0
    4.6475   -1.1335   -0.2082 C   0  0  0  0  0  0  0  0  0  0  0  0
    3.2584   -1.1429   -0.0493 C   0  0  0  0  0  0  0  0  0  0  0  0
    0.6756    0.8787   -0.0333 H   0  0  0  0  0  0  0  0  0  0  0  0
    0.6911   -0.8057   -0.0430 H   0  0  0  0  0  0  0  0  0  0  0  0
    2.7044    2.2049    0.0622 H   0  0  0  0  0  0  0  0  0  0  0  0
    5.1505    2.2300   -0.2398 H   0  0  0  0  0  0  0  0  0  0  0  0
    5.1917   -2.0729   -0.2494 H   0  0  0  0  0  0  0  0  0  0  0  0
    2.7454   -2.0958    0.0514 H   0  0  0  0  0  0  0  0  0  0  0  0
  1  2  1  0  0  0  0
  1  9  1  0  0  0  0
  1 10  1  0  0  0  0
  2  3  2  0  0  0  0
  2  8  1  0  0  0  0
  3  4  1  0  0  0  0
  3 11  1  0  0  0  0
  4  5  2  0  0  0  0
  4 12  1  0  0  0  0
  5  6  1  0  0  0  0
  5  7  1  0  0  0  0
  7  8  2  0  0  0  0
  7 13  1  0  0  0  0
  8 14  1  0  0  0  0
M  END
$$$$

 OpenBabel12201709243D

 18 18  0  0  0  0  0  0  0  0999 V2000
    1.4459   -0.9536    0.4394 C   0  0  0  0  0  0  0  0  0  0  0  0
    2.4955   -0.1163   -0.0355 O   0  0  0  0  0  0  0  0  0  0  0  0
    3.0281   -0.4866   -1.2398 C   0  0  0  0  0  0  0  0  0  0  0  0
    3.5399    0.5487   -2.0205 C   0  0  0  0  0  0  0  0  0  0  0  0
    4.1041    0.2797   -3.2708 C   0  0  0  0  0  0  0  0  0  0  0  0
    4.1409   -1.0244   -3.7682 C   0  0  0  0  0  0  0  0  0  0  0  0
    4.8068   -1.3075   -4.9664 N   0  0  0  0  0  0  0  0  0  0  0  0
    3.7132   -2.0646   -2.9408 C   0  0  0  0  0  0  0  0  0  0  0  0
    3.1429   -1.8001   -1.6910 C   0  0  0  0  0  0  0  0  0  0  0  0
    1.0184   -0.4820    1.3293 H   0  0  0  0  0  0  0  0  0  0  0  0
    1.8205   -1.9370    0.7389 H   0  0  0  0  0  0  0  0  0  0  0  0
    0.6496   -1.0470   -0.3076 H   0  0  0  0  0  0  0  0  0  0  0  0
    3.5013    1.5715   -1.6547 H   0  0  0  0  0  0  0  0  0  0  0  0
    4.5156    1.1008   -3.8517 H   0  0  0  0  0  0  0  0  0  0  0  0
    4.7973   -0.5373   -5.6281 H   0  0  0  0  0  0  0  0  0  0  0  0
    4.5190   -2.1825   -5.3936 H   0  0  0  0  0  0  0  0  0  0  0  0
    3.8245   -3.0971   -3.2599 H   0  0  0  0  0  0  0  0  0  0  0  0
    2.8290   -2.6400   -1.0812 H   0  0  0  0  0  0  0  0  0  0  0  0
  1  2  1  0  0  0  0
  1 10  1  0  0  0  0
  1 11  1  0  0  0  0
  1 12  1  0  0  0  0
  2  3  1  0  0  0  0
  3  4  2  0  0  0  0
  3  9  1  0  0  0  0
  4  5  1  0  0  0  0
  4 13  1  0  0  0  0
  5  6  2  0  0  0  0
  5 14  1  0  0  0  0
  6  7  1  0  0  0  0
  6  8  1  0  0  0  0
  7 15  1  0  0  0  0
  7 16  1  0  0  0  0
  8  9  2  0  0  0  0
  8 17  1  0  0  0  0
  9 18  1  0  0  0  0
M  END
$$$$

 OpenBabel12201709243D

 34 35  0  0  0  0  0  0  0  0999 V2000
    3.0199    1.1238    0.7722 C   0  0  0  0  0  0  0  0  0  0  0  0
    2.4993   -0.0382    0.1305 O   0  0  0  0  0  0  0  0  0  0  0  0
    3.0393   -0.2974   -1.1087 C   0  0  0  0  0  0  0  0  0  0  0  0
    3.4004    0.7102   -2.0130 C   0  0  0  0  0  0  0  0  0  0  0  0
    3.9748    0.4144   -3.2621 C   0  0  0  0  0  0  0  0  0  0  0  0
    4.1625   -0.9425   -3.5696 C   0  0  0  0  0  0  0  0  0  0  0  0
    3.7592   -1.9587   -2.6946 C   0  0  0  0  0  0  0  0  0  0  0  0
    3.1465   -1.6472   -1.4816 C   0  0  0  0  0  0  0  0  0  0  0  0
    2.8583   -2.6755   -0.5642 N   0  0  0  0  0  0  0  0  0  0  0  0
    4.3904    1.4913   -4.1944 C   0  0  0  0  0  0  0  0  0  0  0  0
    4.3145    1.3189   -5.5855 C   0  0  0  0  0  0  0  0  0  0  0  0
    4.7476    2.3134   -6.4655 C   0  0  0  0  0  0  0  0  0  0  0  0
    5.2956    3.5006   -5.9856 C   0  0  0  0  0  0  0  0  0  0  0  0
    5.6392    4.5246   -6.8892 N   0  0  0  0  0  0  0  0  0  0  0  0
    5.3059    3.7349   -4.5985 C   0  0  0  0  0  0  0  0  0  0  0  0
    5.8044    4.9587   -4.2153 O   0  0  0  0  0  0  0  0  0  0  0  0
    5.7436    5.2864   -2.8333 C   0  0  0  0  0  0  0  0  0  0  0  0
    4.8767    2.7294   -3.7221 C   0  0  0  0  0  0  0  0  0  0  0  0
    2.6395    1.1412    1.7988 H   0  0  0  0  0  0  0  0  0  0  0  0
    2.6720    2.0400    0.2864 H   0  0  0  0  0  0  0  0  0  0  0  0
    4.1146    1.0967    0.8187 H   0  0  0  0  0  0  0  0  0  0  0  0
    3.2108    1.7478   -1.7564 H   0  0  0  0  0  0  0  0  0  0  0  0
    4.6475   -1.2361   -4.5002 H   0  0  0  0  0  0  0  0  0  0  0  0
    3.9360   -2.9955   -2.9683 H   0  0  0  0  0  0  0  0  0  0  0  0
    2.5512   -3.5357   -1.0064 H   0  0  0  0  0  0  0  0  0  0  0  0
    2.2105   -2.3445    0.1489 H   0  0  0  0  0  0  0  0  0  0  0  0
    3.8986    0.4070   -6.0088 H   0  0  0  0  0  0  0  0  0  0  0  0
    4.6539    2.1514   -7.5381 H   0  0  0  0  0  0  0  0  0  0  0  0
    6.0443    4.1780   -7.7514 H   0  0  0  0  0  0  0  0  0  0  0  0
    6.2251    5.2188   -6.4265 H   0  0  0  0  0  0  0  0  0  0  0  0
    6.2006    6.2724   -2.7046 H   0  0  0  0  0  0  0  0  0  0  0  0
    6.3201    4.5793   -2.2291 H   0  0  0  0  0  0  0  0  0  0  0  0
    4.7059    5.3503   -2.4888 H   0  0  0  0  0  0  0  0  0  0  0  0
    4.9355    2.8897   -2.6516 H   0  0  0  0  0  0  0  0  0  0  0  0
  1  2  1  0  0  0  0
  1 19  1  0  0  0  0
  1 20  1  0  0  0  0
  1 21  1  0  0  0  0
  2  3  1  0  0  0  0
  3  4  2  0  0  0  0
  3  8  1  0  0  0  0
  4  5  1  0  0  0  0
  4 22  1  0  0  0  0
  5  6  2  0  0  0  0
  5 10  1  0  0  0  0
  6  7  1  0  0  0  0
  6 23  1  0  0  0  0
  7  8  2  0  0  0  0
  7 24  1  0  0  0  0
  8  9  1  0  0  0  0
  9 25  1  0  0  0  0
  9 26  1  0  0  0  0
 10 11  2  0  0  0  0
 10 18  1  0  0  0  0
 11 12  1  0  0  0  0
 11 27  1  0  0  0  0
 12 13  2  0  0  0  0
 12 28  1  0  0  0  0
 13 14  1  0  0  0  0
 13 15  1  0  0  0  0
 14 29  1  0  0  0  0
 14 30  1  0  0  0  0
 15 16  1  0  0  0  0
 15 18  2  0  0  0  0
 16 17  1  0  0  0  0
 17 31  1  0  0  0  0
 17 32  1  0  0  0  0
 17 33  1  0  0  0  0
 18 34  1  0  0  0  0
M  END
$$$$

 OpenBabel12201709243D

 57 60  0  0  1  0  0  0  0  0999 V2000
    1.0695    8.8121    2.5676 C   0  0  0  0  0  0  0  0  0  0  0  0
    2.3339    8.5073    3.2122 N   0  0  0  0  0  0  0  0  0  0  0  0
    2.7855    9.5507    4.1261 C   0  0  0  0  0  0  0  0  0  0  0  0
    2.5311    7.1200    3.6564 C   0  0  3  0  0  0  0  0  0  0  0  0
    2.7633    6.1082    2.4697 C   0  0  3  0  0  0  0  0  0  0  0  0
    2.9483    6.6796    1.0057 C   0  0  3  0  0  0  0  0  0  0  0  0
    3.8765    7.7399    0.9341 O   0  0  0  0  0  0  0  0  0  0  0  0
    3.2383    5.5900   -0.0997 C   0  0  3  0  0  0  0  0  0  0  0  0
    2.6773    4.2384    0.2682 C   0  0  0  0  0  0  0  0  0  0  0  0
    2.2642    3.9230    1.5006 C   0  0  0  0  0  0  0  0  0  0  0  0
    2.5313    2.6965    2.0726 O   0  0  0  0  0  0  0  0  0  0  0  0
    1.6983    5.0143    2.3841 C   0  0  3  0  0  0  0  0  0  0  0  0
    0.5304    5.5182    1.6727 O   0  0  0  0  0  0  0  0  0  0  0  0
    1.0586    4.5216    3.6771 C   0  0  0  0  0  0  0  0  0  0  0  0
    0.5807    3.3886    3.8025 O   0  0  0  0  0  0  0  0  0  0  0  0
    0.8355    5.5144    4.7508 C   0  0  0  0  0  0  0  0  0  0  0  0
    1.5451    6.6612    4.7479 C   0  0  0  0  0  0  0  0  0  0  0  0
    1.4515    7.5606    5.8128 O   0  0  0  0  0  0  0  0  0  0  0  0
   -0.2034    5.2978    5.8055 C   0  0  0  0  0  0  0  0  0  0  0  0
   -0.4033    6.1149    6.7041 O   0  0  0  0  0  0  0  0  0  0  0  0
   -0.9784    4.1847    5.7201 N   0  0  0  0  0  0  0  0  0  0  0  0
    2.6987    3.2107   -0.7810 C   0  0  0  0  0  0  0  0  0  0  0  0
    1.7818    2.4154   -0.9389 O   0  0  0  0  0  0  0  0  0  0  0  0
    3.9007    3.1793   -1.6155 C   0  0  0  0  0  0  0  0  0  0  0  0
    4.0199    2.1819   -2.5958 C   0  0  0  0  0  0  0  0  0  0  0  0
    2.9947    1.3496   -2.9582 O   0  0  0  0  0  0  0  0  0  0  0  0
    5.2298    1.9885   -3.2428 C   0  0  0  0  0  0  0  0  0  0  0  0
    6.3278    2.7639   -2.8867 C   0  0  0  0  0  0  0  0  0  0  0  0
    6.1938    3.7883   -1.9419 C   0  0  0  0  0  0  0  0  0  0  0  0
    4.9543    4.0684   -1.3411 C   0  0  0  0  0  0  0  0  0  0  0  0
    4.7612    5.3256   -0.4500 C   0  0  3  0  0  0  0  0  0  0  0  0
    5.3840    6.5390   -1.1756 C   0  0  0  0  0  0  0  0  0  0  0  0
    5.4895    5.1295    0.7709 O   0  0  0  0  0  0  0  0  0  0  0  0
    0.4840    9.5662    3.1022 H   0  0  0  0  0  0  0  0  0  0  0  0
    0.4278    7.9371    2.4409 H   0  0  0  0  0  0  0  0  0  0  0  0
    1.2795    9.2058    1.5658 H   0  0  0  0  0  0  0  0  0  0  0  0
    2.4813   10.5448    3.7795 H   0  0  0  0  0  0  0  0  0  0  0  0
    3.8788    9.5598    4.1787 H   0  0  0  0  0  0  0  0  0  0  0  0
    2.4058    9.4593    5.1457 H   0  0  0  0  0  0  0  0  0  0  0  0
    3.5063    7.1226    4.1712 H   0  0  0  0  0  0  0  0  0  0  0  0
    3.7162    5.6267    2.7360 H   0  0  0  0  0  0  0  0  0  0  0  0
    1.9907    7.1256    0.7053 H   0  0  0  0  0  0  0  0  0  0  0  0
    4.5857    7.5720    1.5765 H   0  0  0  0  0  0  0  0  0  0  0  0
    2.7383    5.9291   -1.0192 H   0  0  0  0  0  0  0  0  0  0  0  0
    3.1000    2.1591    1.4915 H   0  0  0  0  0  0  0  0  0  0  0  0
    0.0658    4.7423    1.3018 H   0  0  0  0  0  0  0  0  0  0  0  0
    0.7260    7.2909    6.4213 H   0  0  0  0  0  0  0  0  0  0  0  0
   -0.7941    3.4632    5.0245 H   0  0  0  0  0  0  0  0  0  0  0  0
   -1.7081    4.0434    6.3973 H   0  0  0  0  0  0  0  0  0  0  0  0
    2.2096    1.5570   -2.4039 H   0  0  0  0  0  0  0  0  0  0  0  0
    5.3244    1.2149   -3.9985 H   0  0  0  0  0  0  0  0  0  0  0  0
    7.2923    2.5807   -3.3529 H   0  0  0  0  0  0  0  0  0  0  0  0
    7.0815    4.3621   -1.6852 H   0  0  0  0  0  0  0  0  0  0  0  0
    4.8201    6.7965   -2.0780 H   0  0  0  0  0  0  0  0  0  0  0  0
    6.4224    6.3573   -1.4694 H   0  0  0  0  0  0  0  0  0  0  0  0
    5.4658    7.4247   -0.5463 H   0  0  0  0  0  0  0  0  0  0  0  0
    5.2814    4.2436    1.1131 H   0  0  0  0  0  0  0  0  0  0  0  0
  1  2  1  0  0  0  0
  1 34  1  0  0  0  0
  1 35  1  0  0  0  0
  1 36  1  0  0  0  0
  2  3  1  0  0  0  0
  2  4  1  0  0  0  0
  3 37  1  0  0  0  0
  3 38  1  0  0  0  0
  3 39  1  0  0  0  0
  4  5  1  0  0  0  0
  4 17  1  0  0  0  0
  4 40  1  0  0  0  0
  5  6  1  0  0  0  0
  5 12  1  0  0  0  0
  5 41  1  0  0  0  0
  6  7  1  0  0  0  0
  6  8  1  0  0  0  0
  6 42  1  0  0  0  0
  7 43  1  0  0  0  0
  8  9  1  0  0  0  0
  8 31  1  0  0  0  0
  8 44  1  0  0  0  0
  9 10  2  0  0  0  0
  9 22  1  0  0  0  0
 10 11  1  0  0  0  0
 10 12  1  0  0  0  0
 11 45  1  0  0  0  0
 12 13  1  0  0  0  0
 12 14  1  0  0  0  0
 13 46  1  0  0  0  0
 14 15  2  0  0  0  0
 14 16  1  0  0  0  0
 16 17  2  0  0  0  0
 16 19  1  0  0  0  0
 17 18  1  0  0  0  0
 18 47  1  0  0  0  0
 19 20  2  0  0  0  0
 19 21  1  0  0  0  0
 21 48  1  0  0  0  0
 21 49  1  0  0  0  0
 22 23  2  0  0  0  0
 22 24  1  0  0  0  0
 24 25  2  0  0  0  0
 24 30  1  0  0  0  0
 25 26  1  0  0  0  0
 25 27  1  0  0  0  0
 26 50  1  0  0  0  0
 27 28  2  0  0  0  0
 27 51  1  0  0  0  0
 28 29  1  0  0  0  0
 28 52  1  0  0  0  0
 29 30  2  0  0  0  0
 29 53  1  0  0  0  0
 30 31  1  0  0  0  0
 31 32  1  0  0  0  0
 31 33  1  0  0  0  0
 32 54  1  0  0  0  0
 32 55  1  0  0  0  0
 32 56  1  0  0  0  0
 33 57  1  0  0  0  0
M  END
$$$$

 OpenBabel12201709243D

 24 24  0  0  0  0  0  0  0  0999 V2000
    1.8627   -0.6982    0.6943 O   0  0  0  0  0  0  0  0  0  0  0  0
    2.9090   -0.3977    0.1075 N   0  0  0  0  0  0  0  0  0  0  0  0
    2.7027   -0.3437   -1.1854 N   0  0  0  0  0  0  0  0  0  0  0  0
    3.5713    0.6297   -1.8555 C   0  0  0  0  0  0  0  0  0  0  0  0
    3.0028    1.1941   -3.1654 C   0  0  0  0  0  0  0  0  0  0  0  0
    1.4994    1.4881   -3.1206 C   0  0  0  0  0  0  0  0  0  0  0  0
    0.6172    0.4160   -3.7703 C   0  0  0  0  0  0  0  0  0  0  0  0
    0.5743   -0.9653   -3.1058 C   0  0  0  0  0  0  0  0  0  0  0  0
    1.8980   -1.7325   -3.1429 C   0  0  0  0  0  0  0  0  0  0  0  0
    2.6995   -1.6623   -1.8367 C   0  0  0  0  0  0  0  0  0  0  0  0
    4.5751    0.2203   -2.0322 H   0  0  0  0  0  0  0  0  0  0  0  0
    3.7192    1.4991   -1.1958 H   0  0  0  0  0  0  0  0  0  0  0  0
    3.2550    0.5519   -4.0149 H   0  0  0  0  0  0  0  0  0  0  0  0
    3.5287    2.1393   -3.3577 H   0  0  0  0  0  0  0  0  0  0  0  0
    1.3286    2.4165   -3.6814 H   0  0  0  0  0  0  0  0  0  0  0  0
    1.1628    1.6942   -2.0977 H   0  0  0  0  0  0  0  0  0  0  0  0
    0.9088    0.2992   -4.8202 H   0  0  0  0  0  0  0  0  0  0  0  0
   -0.4102    0.8025   -3.7833 H   0  0  0  0  0  0  0  0  0  0  0  0
   -0.1660   -1.5575   -3.6602 H   0  0  0  0  0  0  0  0  0  0  0  0
    0.1859   -0.8880   -2.0834 H   0  0  0  0  0  0  0  0  0  0  0  0
    2.5093   -1.4283   -3.9986 H   0  0  0  0  0  0  0  0  0  0  0  0
    1.6726   -2.7937   -3.3203 H   0  0  0  0  0  0  0  0  0  0  0  0
    3.7233   -2.0229   -2.0107 H   0  0  0  0  0  0  0  0  0  0  0  0
    2.2420   -2.4072   -1.1674 H   0  0  0  0  0  0  0  0  0  0  0  0
  1  2  2  0  0  0  0
  2  3  1  0  0  0  0
  3  4  1  0  0  0  0
  3 10  1  0  0  0  0
  4  5  1  0  0  0  0
  4 11  1  0  0  0  0
  4 12  1  0  0  0  0
  5  6  1  0  0  0  0
  5 13  1  0  0  0  0
  5 14  1  0  0  0  0
  6  7  1  0  0  0  0
  6 15  1  0  0  0  0
  6 16  1  0  0  0  0
  7  8  1  0  0  0  0
  7 17  1  0  0  0  0
  7 18  1  0  0  0  0
  8  9  1  0  0  0  0
  8 19  1  0  0  0  0
  8 20  1  0  0  0  0
  9 10  1  0  0  0  0
  9 21  1  0  0  0  0
  9 22  1  0  0  0  0
 10 23  1  0  0  0  0
 10 24  1  0  0  0  0
M  END
$$$$

 OpenBabel12201709243D

 73 72  0  0  0  0  0  0  0  0999 V2000
    4.3957    3.8098   -6.4824 C   0  0  0  0  0  0  0  0  0  0  0  0
    3.3038    3.2617   -5.5545 C   0  0  0  0  0  0  0  0  0  0  0  0
    3.8332    2.3838   -4.4882 N   0  0  0  0  0  0  0  0  0  0  0  0
    3.6685    2.7077   -3.0610 C   0  0  0  0  0  0  0  0  0  0  0  0
    2.9797    4.0386   -2.7186 C   0  0  0  0  0  0  0  0  0  0  0  0
    4.4614    1.1073   -4.8080 C   0  0  0  0  0  0  0  0  0  0  0  0
    4.4371    0.5626   -6.1419 S   0  0  0  0  0  0  0  0  0  0  0  0
    5.0247   -0.0439   -3.5234 S   0  0  0  0  0  0  0  0  0  0  0  0
    7.3160    0.8084   -3.1516 Te  0  0  0  0  0  0  0  0  0  0  0  0
    9.0783    2.3903   -2.4034 S   0  0  0  0  0  0  0  0  0  0  0  0
    8.4007    2.7890   -0.7728 C   0  0  0  0  0  0  0  0  0  0  0  0
    6.9871    3.0068   -0.5925 S   0  0  0  0  0  0  0  0  0  0  0  0
    9.2917    2.8679    0.3442 N   0  0  0  0  0  0  0  0  0  0  0  0
   10.4631    3.7354    0.2610 C   0  0  0  0  0  0  0  0  0  0  0  0
   10.4646    4.7855    1.3801 C   0  0  0  0  0  0  0  0  0  0  0  0
    9.0565    2.0397    1.5226 C   0  0  0  0  0  0  0  0  0  0  0  0
    9.1138    0.5610    1.1289 C   0  0  0  0  0  0  0  0  0  0  0  0
    8.1832   -1.4220   -2.3484 S   0  0  0  0  0  0  0  0  0  0  0  0
    7.6436   -2.4557   -3.7520 C   0  0  0  0  0  0  0  0  0  0  0  0
    8.0903   -2.0770   -5.0707 S   0  0  0  0  0  0  0  0  0  0  0  0
    6.8507   -3.6530   -3.5737 N   0  0  0  0  0  0  0  0  0  0  0  0
    5.7965   -3.9947   -4.5378 C   0  0  0  0  0  0  0  0  0  0  0  0
    4.4182   -4.0560   -3.8749 C   0  0  0  0  0  0  0  0  0  0  0  0
    7.1003   -4.5668   -2.4589 C   0  0  0  0  0  0  0  0  0  0  0  0
    8.4540   -5.2726   -2.6173 C   0  0  0  0  0  0  0  0  0  0  0  0
    7.7829    1.3953   -5.5135 S   0  0  0  0  0  0  0  0  0  0  0  0
    9.5814    1.7137   -5.5072 C   0  0  0  0  0  0  0  0  0  0  0  0
   10.4546    0.6286   -5.1281 S   0  0  0  0  0  0  0  0  0  0  0  0
   10.1027    2.9507   -6.0667 N   0  0  0  0  0  0  0  0  0  0  0  0
    9.2374    4.1232   -6.1747 C   0  0  0  0  0  0  0  0  0  0  0  0
    9.7886    5.3300   -5.4035 C   0  0  0  0  0  0  0  0  0  0  0  0
   11.4835    3.0615   -6.5750 C   0  0  0  0  0  0  0  0  0  0  0  0
   11.7311    2.1412   -7.7752 C   0  0  0  0  0  0  0  0  0  0  0  0
    3.9227    4.4533   -7.2568 H   0  0  0  0  0  0  0  0  0  0  0  0
    4.9428    3.0132   -7.0200 H   0  0  0  0  0  0  0  0  0  0  0  0
    5.1244    4.4202   -5.9110 H   0  0  0  0  0  0  0  0  0  0  0  0
    2.5512    2.7048   -6.1522 H   0  0  0  0  0  0  0  0  0  0  0  0
    2.7793    4.1511   -5.1637 H   0  0  0  0  0  0  0  0  0  0  0  0
    4.6682    2.7290   -2.5802 H   0  0  0  0  0  0  0  0  0  0  0  0
    3.0622    1.9058   -2.5868 H   0  0  0  0  0  0  0  0  0  0  0  0
    3.5678    4.9001   -3.1014 H   0  0  0  0  0  0  0  0  0  0  0  0
    2.9085    4.1405   -1.6142 H   0  0  0  0  0  0  0  0  0  0  0  0
    1.9417    4.0727   -3.1144 H   0  0  0  0  0  0  0  0  0  0  0  0
   10.4658    4.2884   -0.7054 H   0  0  0  0  0  0  0  0  0  0  0  0
   11.3892    3.1280    0.3182 H   0  0  0  0  0  0  0  0  0  0  0  0
    9.5336    5.3912    1.3520 H   0  0  0  0  0  0  0  0  0  0  0  0
   11.3341    5.4648    1.2558 H   0  0  0  0  0  0  0  0  0  0  0  0
   10.5518    4.3138    2.3802 H   0  0  0  0  0  0  0  0  0  0  0  0
    8.0741    2.2789    1.9755 H   0  0  0  0  0  0  0  0  0  0  0  0
    9.8451    2.2031    2.2843 H   0  0  0  0  0  0  0  0  0  0  0  0
    8.3210    0.3186    0.3877 H   0  0  0  0  0  0  0  0  0  0  0  0
    8.9733   -0.0763    2.0204 H   0  0  0  0  0  0  0  0  0  0  0  0
   10.1042    0.3307    0.6709 H   0  0  0  0  0  0  0  0  0  0  0  0
    6.0233   -4.9709   -5.0198 H   0  0  0  0  0  0  0  0  0  0  0  0
    5.7217   -3.2292   -5.3393 H   0  0  0  0  0  0  0  0  0  0  0  0
    4.3421   -4.8717   -3.1293 H   0  0  0  0  0  0  0  0  0  0  0  0
    3.6393   -4.2436   -4.6477 H   0  0  0  0  0  0  0  0  0  0  0  0
    4.1904   -3.0906   -3.3738 H   0  0  0  0  0  0  0  0  0  0  0  0
    6.3577   -5.3911   -2.4444 H   0  0  0  0  0  0  0  0  0  0  0  0
    7.0317   -4.0411   -1.4856 H   0  0  0  0  0  0  0  0  0  0  0  0
    8.4767   -5.8346   -3.5781 H   0  0  0  0  0  0  0  0  0  0  0  0
    8.5916   -6.0089   -1.7939 H   0  0  0  0  0  0  0  0  0  0  0  0
    9.2852   -4.5456   -2.5978 H   0  0  0  0  0  0  0  0  0  0  0  0
    8.2352    3.9286   -5.7485 H   0  0  0  0  0  0  0  0  0  0  0  0
    9.1061    4.3952   -7.2430 H   0  0  0  0  0  0  0  0  0  0  0  0
    9.9418    5.0736   -4.3346 H   0  0  0  0  0  0  0  0  0  0  0  0
    9.0632    6.1684   -5.4699 H   0  0  0  0  0  0  0  0  0  0  0  0
   10.7459    5.6955   -5.8269 H   0  0  0  0  0  0  0  0  0  0  0  0
   12.2173    2.8551   -5.7659 H   0  0  0  0  0  0  0  0  0  0  0  0
   11.6846    4.0861   -6.9518 H   0  0  0  0  0  0  0  0  0  0  0  0
   11.6432    1.0723   -7.5091 H   0  0  0  0  0  0  0  0  0  0  0  0
   12.7598    2.3069   -8.1635 H   0  0  0  0  0  0  0  0  0  0  0  0
   11.0077    2.3708   -8.5861 H   0  0  0  0  0  0  0  0  0  0  0  0
  1  2  1  0  0  0  0
  1 34  1  0  0  0  0
  1 35  1  0  0  0  0
  1 36  1  0  0  0  0
  2  3  1  0  0  0  0
  2 37  1  0  0  0  0
  2 38  1  0  0  0  0
  3  4  1  0  0  0  0
  3  6  1  0  0  0  0
  4  5  1  0  0  0  0
  4 39  1  0  0  0  0
  4 40  1  0  0  0  0
  5 41  1  0  0  0  0
  5 42  1  0  0  0  0
  5 43  1  0  0  0  0
  6  7  2  0  0  0  0
  6  8  1  0  0  0  0
  8  9  1  0  0  0  0
  9 10  1  0  0  0  0
  9 18  1  0  0  0  0
  9 26  1  0  0  0  0
 10 11  1  0  0  0  0
 11 12  2  0  0  0  0
 11 13  1  0  0  0  0
 13 14  1  0  0  0  0
 13 16  1  0  0  0  0
 14 15  1  0  0  0  0
 14 44  1  0  0  0  0
 14 45  1  0  0  0  0
 15 46  1  0  0  0  0
 15 47  1  0  0  0  0
 15 48  1  0  0  0  0
 16 17  1  0  0  0  0
 16 49  1  0  0  0  0
 16 50  1  0  0  0  0
 17 51  1  0  0  0  0
 17 52  1  0  0  0  0
 17 53  1  0  0  0  0
 18 19  1  0  0  0  0
 19 20  2  0  0  0  0
 19 21  1  0  0  0  0
 21 22  1  0  0  0  0
 21 24  1  0  0  0  0
 22 23  1  0  0  0  0
 22 54  1  0  0  0  0
 22 55  1  0  0  0  0
 23 56  1  0  0  0  0
 23 57  1  0  0  0  0
 23 58  1  0  0  0  0
 24 25  1  0  0  0  0
 24 59  1  0  0  0  0
 24 60  1  0  0  0  0
 25 61  1  0  0  0  0
 25 62  1  0  0  0  0
 25 63  1  0  0  0  0
 26 27  1  0  0  0  0
 27 28  2  0  0  0  0
 27 29  1  0  0  0  0
 29 30  1  0  0  0  0
 29 32  1  0  0  0  0
 30 31  1  0  0  0  0
 30 64  1  0  0  0  0
 30 65  1  0  0  0  0
 31 66  1  0  0  0  0
 31 67  1  0  0  0  0
 31 68  1  0  0  0  0
 32 33  1  0  0  0  0
 32 69  1  0  0  0  0
 32 70  1  0  0  0  0
 33 71  1  0  0  0  0
 33 72  1  0  0  0  0
 33 73  1  0  0  0  0
M  END
$$$$

 OpenBabel12201709243D

 24 25  0  0  0  0  0  0  0  0999 V2000
    1.0354    0.0709    0.4044 N   0  0  0  0  0  0  0  0  0  0  0  0
    2.4024    0.1026    0.1057 C   0  0  0  0  0  0  0  0  0  0  0  0
    3.0814    1.3167    0.0399 C   0  0  0  0  0  0  0  0  0  0  0  0
    4.4642    1.3530   -0.1837 C   0  0  0  0  0  0  0  0  0  0  0  0
    5.2256    0.1748   -0.2929 C   0  0  0  0  0  0  0  0  0  0  0  0
    4.5377   -1.0371   -0.1171 C   0  0  0  0  0  0  0  0  0  0  0  0
    3.1515   -1.0719    0.0919 C   0  0  0  0  0  0  0  0  0  0  0  0
    6.6762    0.2168   -0.6047 C   0  0  0  0  0  0  0  0  0  0  0  0
    7.5002    1.2696   -0.1681 C   0  0  0  0  0  0  0  0  0  0  0  0
    8.8527    1.3396   -0.5254 C   0  0  0  0  0  0  0  0  0  0  0  0
    9.4178    0.3442   -1.3148 C   0  0  0  0  0  0  0  0  0  0  0  0
    8.6342   -0.7219   -1.7417 C   0  0  0  0  0  0  0  0  0  0  0  0
    7.2805   -0.7806   -1.3930 C   0  0  0  0  0  0  0  0  0  0  0  0
    0.5353    0.8982    0.0932 H   0  0  0  0  0  0  0  0  0  0  0  0
    0.5779   -0.7846    0.1037 H   0  0  0  0  0  0  0  0  0  0  0  0
    2.5401    2.2536    0.1389 H   0  0  0  0  0  0  0  0  0  0  0  0
    4.9340    2.3282   -0.2889 H   0  0  0  0  0  0  0  0  0  0  0  0
    5.0746   -1.9831   -0.1313 H   0  0  0  0  0  0  0  0  0  0  0  0
    2.6648   -2.0328    0.2341 H   0  0  0  0  0  0  0  0  0  0  0  0
    7.0997    2.0610    0.4634 H   0  0  0  0  0  0  0  0  0  0  0  0
    9.4592    2.1758   -0.1875 H   0  0  0  0  0  0  0  0  0  0  0  0
   10.4654    0.4001   -1.5983 H   0  0  0  0  0  0  0  0  0  0  0  0
    9.0688   -1.5044   -2.3590 H   0  0  0  0  0  0  0  0  0  0  0  0
    6.6938   -1.6142   -1.7738 H   0  0  0  0  0  0  0  0  0  0  0  0
  1  2  1  0  0  0  0
  1 14  1  0  0  0  0
  1 15  1  0  0  0  0
  2  3  2  0  0  0  0
  2  7  1  0  0  0  0
  3  4  1  0  0  0  0
  3 16  1  0  0  0  0
  4  5  2  0  0  0  0
  4 17  1  0  0  0  0
  5  6  1  0  0  0  0
  5  8  1  0  0  0  0
  6  7  2  0  0  0  0
  6 18  1  0  0  0  0
  7 19  1  0  0  0  0
  8  9  2  0  0  0  0
  8 13  1  0  0  0  0
  9 10  1  0  0  0  0
  9 20  1  0  0  0  0
 10 11  2  0  0  0  0
 10 21  1  0  0  0  0
 11 12  1  0  0  0  0
 11 22  1  0  0  0  0
 12 13  2  0  0  0  0
 12 23  1  0  0  0  0
 13 24  1  0  0  0  0
M  END
$$$$

 OpenBabel12201709243D

 23 23  0  0  0  0  0  0  0  0999 V2000
    1.0857    0.0789    0.0879 C   0  0  0  0  0  0  0  0  0  0  0  0
    2.5847    0.0550   -0.0349 C   0  0  0  0  0  0  0  0  0  0  0  0
    3.2890    1.2664   -0.1064 C   0  0  0  0  0  0  0  0  0  0  0  0
    4.6889    1.2992   -0.2276 C   0  0  0  0  0  0  0  0  0  0  0  0
    5.3861    2.6300   -0.2835 C   0  0  0  0  0  0  0  0  0  0  0  0
    5.3999    0.0927   -0.3199 C   0  0  0  0  0  0  0  0  0  0  0  0
    6.8041    0.0638   -0.3158 N   0  0  0  0  0  0  0  0  0  0  0  0
    4.6999   -1.1144   -0.1889 C   0  0  0  0  0  0  0  0  0  0  0  0
    3.3003   -1.1530   -0.0759 C   0  0  0  0  0  0  0  0  0  0  0  0
    2.6036   -2.4835   -0.0046 C   0  0  0  0  0  0  0  0  0  0  0  0
    0.7055    1.1018    0.1787 H   0  0  0  0  0  0  0  0  0  0  0  0
    0.7658   -0.4666    0.9815 H   0  0  0  0  0  0  0  0  0  0  0  0
    0.6270   -0.3700   -0.7984 H   0  0  0  0  0  0  0  0  0  0  0  0
    2.7390    2.2049   -0.0579 H   0  0  0  0  0  0  0  0  0  0  0  0
    4.6871    3.4593   -0.1292 H   0  0  0  0  0  0  0  0  0  0  0  0
    5.8521    2.7684   -1.2650 H   0  0  0  0  0  0  0  0  0  0  0  0
    6.1503    2.6983    0.4968 H   0  0  0  0  0  0  0  0  0  0  0  0
    7.2301    0.8815   -0.7378 H   0  0  0  0  0  0  0  0  0  0  0  0
    7.1907   -0.7987   -0.6852 H   0  0  0  0  0  0  0  0  0  0  0  0
    5.2577   -2.0485   -0.1835 H   0  0  0  0  0  0  0  0  0  0  0  0
    3.3172   -3.3144   -0.0266 H   0  0  0  0  0  0  0  0  0  0  0  0
    1.9321   -2.6032   -0.8607 H   0  0  0  0  0  0  0  0  0  0  0  0
    2.0308   -2.5677    0.9243 H   0  0  0  0  0  0  0  0  0  0  0  0
  1  2  1  0  0  0  0
  1 11  1  0  0  0  0
  1 12  1  0  0  0  0
  1 13  1  0  0  0  0
  2  3  2  0  0  0  0
  2  9  1  0  0  0  0
  3  4  1  0  0  0  0
  3 14  1  0  0  0  0
  4  5  1  0  0  0  0
  4  6  2  0  0  0  0
  5 15  1  0  0  0  0
  5 16  1  0  0  0  0
  5 17  1  0  0  0  0
  6  7  1  0  0  0  0
  6  8  1  0  0  0  0
  7 18  1  0  0  0  0
  7 19  1  0  0  0  0
  8  9  2  0  0  0  0
  8 20  1  0  0  0  0
  9 10  1  0  0  0  0
 10 21  1  0  0  0  0
 10 22  1  0  0  0  0
 10 23  1  0  0  0  0
M  END
$$$$

 OpenBabel12201709243D

 28 29  0  0  1  0  0  0  0  0999 V2000
    1.0186    0.0890    0.1680 C   0  0  0  0  0  0  0  0  0  0  0  0
    2.5317    0.0425    0.1525 C   0  0  3  0  0  0  0  0  0  0  0  0
    3.2107    1.2207    0.8450 C   0  0  0  0  0  0  0  0  0  0  0  0
    4.4568    0.6392    1.2958 N   0  0  0  0  0  0  0  0  0  0  0  0
    5.5445    1.4385    1.4959 N   0  0  0  0  0  0  0  0  0  0  0  0
    6.6735    0.9178    1.8508 C   0  0  0  0  0  0  0  0  0  0  0  0
    7.8289    1.7715    1.9829 C   0  0  0  0  0  0  0  0  0  0  0  0
    7.9898    3.1281    1.7846 C   0  0  0  0  0  0  0  0  0  0  0  0
    9.3523    3.4167    2.0236 C   0  0  0  0  0  0  0  0  0  0  0  0
    9.9620    2.2219    2.3597 C   0  0  0  0  0  0  0  0  0  0  0  0
    9.0281    1.2140    2.3364 O   0  0  0  0  0  0  0  0  0  0  0  0
   11.3246    2.0386    2.6739 N   0  0  0  0  0  0  0  0  0  0  0  0
   12.0800    2.9885    2.6632 O   0  0  0  0  0  0  0  0  0  0  0  0
   11.7951    0.7751    2.9896 O   0  0  0  0  0  0  0  0  0  0  0  0
    4.3494   -0.7690    1.3387 C   0  0  0  0  0  0  0  0  0  0  0  0
    5.1744   -1.6023    1.6731 O   0  0  0  0  0  0  0  0  0  0  0  0
    3.0788   -1.0980    0.8471 N   0  0  0  0  0  0  0  0  0  0  0  0
    0.6533    0.9915   -0.3331 H   0  0  0  0  0  0  0  0  0  0  0  0
    0.6232    0.0764    1.1887 H   0  0  0  0  0  0  0  0  0  0  0  0
    0.6041   -0.7796   -0.3560 H   0  0  0  0  0  0  0  0  0  0  0  0
    2.8887   -0.0246   -0.8845 H   0  0  0  0  0  0  0  0  0  0  0  0
    2.6606    1.5543    1.7320 H   0  0  0  0  0  0  0  0  0  0  0  0
    3.3824    2.0663    0.1730 H   0  0  0  0  0  0  0  0  0  0  0  0
    6.8402   -0.1505    2.0525 H   0  0  0  0  0  0  0  0  0  0  0  0
    7.2089    3.8172    1.4915 H   0  0  0  0  0  0  0  0  0  0  0  0
    9.8455    4.3783    1.9571 H   0  0  0  0  0  0  0  0  0  0  0  0
   10.9858    0.2469    2.9137 H   0  0  0  0  0  0  0  0  0  0  0  0
    2.9363   -2.0605    0.5684 H   0  0  0  0  0  0  0  0  0  0  0  0
  1  2  1  0  0  0  0
  1 18  1  0  0  0  0
  1 19  1  0  0  0  0
  1 20  1  0  0  0  0
  2  3  1  0  0  0  0
  2 17  1  0  0  0  0
  2 21  1  0  0  0  0
  3  4  1  0  0  0  0
  3 22  1  0  0  0  0
  3 23  1  0  0  0  0
  4  5  1  0  0  0  0
  4 15  1  0  0  0  0
  5  6  2  3  0  0  0
  6  7  1  0  0  0  0
  6 24  1  0  0  0  0
  7  8  2  0  0  0  0
  7 11  1  0  0  0  0
  8  9  1  0  0  0  0
  8 25  1  0  0  0  0
  9 10  2  0  0  0  0
  9 26  1  0  0  0  0
 10 11  1  0  0  0  0
 10 12  1  0  0  0  0
 12 13  2  0  0  0  0
 12 14  1  0  0  0  0
 14 27  1  0  0  0  0
 15 16  2  0  0  0  0
 15 17  1  0  0  0  0
 17 28  1  0  0  0  0
M  END
$$$$

 OpenBabel12201709243D

 27 27  0  0  0  0  0  0  0  0999 V2000
    1.3758    0.3505    1.1695 C   0  0  0  0  0  0  0  0  0  0  0  0
    2.6659    0.1662    0.5279 N   0  0  0  0  0  0  0  0  0  0  0  0
    3.2770   -1.1506    0.5835 C   0  0  0  0  0  0  0  0  0  0  0  0
    3.2009    1.2884   -0.0910 C   0  0  0  0  0  0  0  0  0  0  0  0
    2.6132    2.3679   -0.0259 O   0  0  0  0  0  0  0  0  0  0  0  0
    4.3796    1.0837   -0.7805 N   0  0  0  0  0  0  0  0  0  0  0  0
    5.0948    2.0975   -1.4644 C   0  0  0  0  0  0  0  0  0  0  0  0
    4.9547    3.4541   -1.1558 C   0  0  0  0  0  0  0  0  0  0  0  0
    5.5870    4.4334   -1.9192 C   0  0  0  0  0  0  0  0  0  0  0  0
    6.3812    4.0673   -2.9993 C   0  0  0  0  0  0  0  0  0  0  0  0
    6.5740    2.7128   -3.3069 C   0  0  0  0  0  0  0  0  0  0  0  0
    5.9510    1.7304   -2.5100 C   0  0  0  0  0  0  0  0  0  0  0  0
    7.4131    2.3111   -4.4926 C   0  0  0  0  0  0  0  0  0  0  0  0
    7.8234    3.3675   -5.2542 F   0  0  0  0  0  0  0  0  0  0  0  0
    8.5446    1.6463   -4.1381 F   0  0  0  0  0  0  0  0  0  0  0  0
    6.7439    1.4840   -5.3450 F   0  0  0  0  0  0  0  0  0  0  0  0
    1.0213   -0.5687    1.6409 H   0  0  0  0  0  0  0  0  0  0  0  0
    0.6454    0.6756    0.4199 H   0  0  0  0  0  0  0  0  0  0  0  0
    1.4627    1.1336    1.9323 H   0  0  0  0  0  0  0  0  0  0  0  0
    2.7161   -1.8183    1.2431 H   0  0  0  0  0  0  0  0  0  0  0  0
    4.3000   -1.0588    0.9583 H   0  0  0  0  0  0  0  0  0  0  0  0
    3.2958   -1.5754   -0.4238 H   0  0  0  0  0  0  0  0  0  0  0  0
    4.5786    0.1334   -1.0499 H   0  0  0  0  0  0  0  0  0  0  0  0
    4.3433    3.7823   -0.3201 H   0  0  0  0  0  0  0  0  0  0  0  0
    5.4322    5.4834   -1.6787 H   0  0  0  0  0  0  0  0  0  0  0  0
    6.8381    4.8448   -3.6078 H   0  0  0  0  0  0  0  0  0  0  0  0
    6.1047    0.6809   -2.7534 H   0  0  0  0  0  0  0  0  0  0  0  0
  1  2  1  0  0  0  0
  1 17  1  0  0  0  0
  1 18  1  0  0  0  0
  1 19  1  0  0  0  0
  2  3  1  0  0  0  0
  2  4  1  0  0  0  0
  3 20  1  0  0  0  0
  3 21  1  0  0  0  0
  3 22  1  0  0  0  0
  4  5  2  0  0  0  0
  4  6  1  0  0  0  0
  6  7  1  0  0  0  0
  6 23  1  0  0  0  0
  7  8  2  0  0  0  0
  7 12  1  0  0  0  0
  8  9  1  0  0  0  0
  8 24  1  0  0  0  0
  9 10  2  0  0  0  0
  9 25  1  0  0  0  0
 10 11  1  0  0  0  0
 10 26  1  0  0  0  0
 11 12  2  0  0  0  0
 11 13  1  0  0  0  0
 12 27  1  0  0  0  0
 13 14  1  0  0  0  0
 13 15  1  0  0  0  0
 13 16  1  0  0  0  0
M  END
$$$$

 OpenBabel12201709243D

 24 25  0  0  0  0  0  0  0  0999 V2000
    0.9593    0.0962    0.1846 N   0  0  0  0  0  0  0  0  0  0  0  0
    2.3634   -0.0009    0.0467 C   0  0  0  0  0  0  0  0  0  0  0  0
    3.0810    1.2100   -0.0199 C   0  0  0  0  0  0  0  0  0  0  0  0
    4.4638    1.2254   -0.1828 C   0  0  0  0  0  0  0  0  0  0  0  0
    5.1443    0.0282   -0.3358 C   0  0  0  0  0  0  0  0  0  0  0  0
    4.4342   -1.1750   -0.3664 C   0  0  0  0  0  0  0  0  0  0  0  0
    3.0276   -1.2308   -0.1980 C   0  0  0  0  0  0  0  0  0  0  0  0
    2.3479   -2.5586   -0.2931 C   0  0  0  0  0  0  0  0  0  0  0  0
    2.9563   -3.7291    0.2054 C   0  0  0  0  0  0  0  0  0  0  0  0
    2.3534   -4.9861    0.0838 C   0  0  0  0  0  0  0  0  0  0  0  0
    1.1035   -5.1039   -0.5124 C   0  0  0  0  0  0  0  0  0  0  0  0
    0.4709   -3.9688   -1.0059 C   0  0  0  0  0  0  0  0  0  0  0  0
    1.0972   -2.7196   -0.9174 C   0  0  0  0  0  0  0  0  0  0  0  0
    0.6538    0.9621    0.6181 H   0  0  0  0  0  0  0  0  0  0  0  0
    0.5646   -0.7184    0.6499 H   0  0  0  0  0  0  0  0  0  0  0  0
    2.5593    2.1594    0.0744 H   0  0  0  0  0  0  0  0  0  0  0  0
    5.0020    2.1688   -0.1975 H   0  0  0  0  0  0  0  0  0  0  0  0
    6.2237    0.0249   -0.4573 H   0  0  0  0  0  0  0  0  0  0  0  0
    5.0023   -2.0843   -0.5478 H   0  0  0  0  0  0  0  0  0  0  0  0
    3.9262   -3.6796    0.6960 H   0  0  0  0  0  0  0  0  0  0  0  0
    2.8651   -5.8706    0.4543 H   0  0  0  0  0  0  0  0  0  0  0  0
    0.6284   -6.0773   -0.5996 H   0  0  0  0  0  0  0  0  0  0  0  0
   -0.5062   -4.0513   -1.4755 H   0  0  0  0  0  0  0  0  0  0  0  0
    0.5918   -1.8648   -1.3637 H   0  0  0  0  0  0  0  0  0  0  0  0
  1  2  1  0  0  0  0
  1 14  1  0  0  0  0
  1 15  1  0  0  0  0
  2  3  2  0  0  0  0
  2  7  1  0  0  0  0
  3  4  1  0  0  0  0
  3 16  1  0  0  0  0
  4  5  2  0  0  0  0
  4 17  1  0  0  0  0
  5  6  1  0  0  0  0
  5 18  1  0  0  0  0
  6  7  2  0  0  0  0
  6 19  1  0  0  0  0
  7  8  1  0  0  0  0
  8  9  2  0  0  0  0
  8 13  1  0  0  0  0
  9 10  1  0  0  0  0
  9 20  1  0  0  0  0
 10 11  2  0  0  0  0
 10 21  1  0  0  0  0
 11 12  1  0  0  0  0
 11 22  1  0  0  0  0
 12 13  2  0  0  0  0
 12 23  1  0  0  0  0
 13 24  1  0  0  0  0
M  END
$$$$

 OpenBabel12201709243D

 64 71  0  0  1  0  0  0  0  0999 V2000
    4.4631   -2.0430   -3.6659 C   0  0  0  0  0  0  0  0  0  0  0  0
    4.3504   -1.4139   -2.3127 C   0  0  0  0  0  0  0  0  0  0  0  0
    4.4133   -0.0195   -2.1966 C   0  0  0  0  0  0  0  0  0  0  0  0
    4.2981    0.5710   -0.9551 C   0  0  0  0  0  0  0  0  0  0  0  0
    4.4343    1.9227   -0.8256 O   0  0  0  0  0  0  0  0  0  0  0  0
    4.1058   -0.2354    0.1703 C   0  0  0  0  0  0  0  0  0  0  0  0
    3.7574    0.3816    1.4273 C   0  0  0  0  0  0  0  0  0  0  0  0
    3.0210    1.3530    1.4446 O   0  0  0  0  0  0  0  0  0  0  0  0
    4.2111   -0.3549    2.6135 C   0  0  0  0  0  0  0  0  0  0  0  0
    4.0237    0.2851    3.7757 C   0  0  0  0  0  0  0  0  0  0  0  0
    3.5681    1.5539    3.9876 O   0  0  0  0  0  0  0  0  0  0  0  0
    4.3545   -0.4861    4.9737 C   0  0  3  0  0  0  0  0  0  0  0  0
    3.5502   -1.7983    4.8984 C   0  0  3  0  0  0  0  0  0  0  0  0
    2.2594   -1.7694    4.3174 O   0  0  0  0  0  0  0  0  0  0  0  0
    4.4671   -2.5478    4.0079 C   0  0  3  0  0  0  0  0  0  0  0  0
    5.8168   -2.3425    4.8074 C   0  0  3  0  0  0  0  0  0  0  0  0
    6.6137   -3.0697    3.7230 C   0  0  3  0  0  0  0  0  0  0  0  0
    7.9610   -3.2482    4.1035 O   0  0  0  0  0  0  0  0  0  0  0  0
    6.2683   -2.1670    2.4518 C   0  0  3  0  0  0  0  0  0  0  0  0
    7.0424   -0.9046    2.6180 C   0  0  0  0  0  0  0  0  0  0  0  0
    7.0983   -0.4494    3.8794 C   0  0  0  0  0  0  0  0  0  0  0  0
    8.4768   -0.5883    4.5651 C   0  0  0  0  0  0  0  0  0  0  0  0
    9.5224   -0.9439    4.0476 O   0  0  0  0  0  0  0  0  0  0  0  0
    8.4367   -0.3536    6.0264 C   0  0  0  0  0  0  0  0  0  0  0  0
    9.0234   -1.0421    7.0648 C   0  0  0  0  0  0  0  0  0  0  0  0
    9.6129   -2.2607    6.8942 O   0  0  0  0  0  0  0  0  0  0  0  0
    8.8790   -0.5503    8.3796 C   0  0  0  0  0  0  0  0  0  0  0  0
    8.2547    0.6928    8.6362 C   0  0  0  0  0  0  0  0  0  0  0  0
    8.1606    1.3113    9.9750 C   0  0  0  0  0  0  0  0  0  0  0  0
    7.6209    1.3175    7.5672 C   0  0  0  0  0  0  0  0  0  0  0  0
    7.0030    2.5252    7.7030 O   0  0  0  0  0  0  0  0  0  0  0  0
    7.5665    0.6418    6.3700 C   0  0  0  0  0  0  0  0  0  0  0  0
    6.3220    0.5705    5.6478 C   0  0  0  0  0  0  0  0  0  0  0  0
    5.7127    1.6351    5.4983 O   0  0  0  0  0  0  0  0  0  0  0  0
    5.9435   -0.7614    4.9015 C   0  0  3  0  0  0  0  0  0  0  0  0
    7.7318   -0.3841    1.5572 O   0  0  0  0  0  0  0  0  0  0  0  0
    4.7144   -1.8444    2.5851 C   0  0  3  0  0  0  0  0  0  0  0  0
    4.0717   -2.4558    1.3476 C   0  0  0  0  0  0  0  0  0  0  0  0
    3.7202   -3.6339    1.2797 O   0  0  0  0  0  0  0  0  0  0  0  0
    4.0993   -1.6288    0.0958 C   0  0  0  0  0  0  0  0  0  0  0  0
    4.2002   -2.2136   -1.1599 C   0  0  0  0  0  0  0  0  0  0  0  0
    4.1767   -3.5731   -1.3199 O   0  0  0  0  0  0  0  0  0  0  0  0
    4.5425   -1.2813   -4.4484 H   0  0  0  0  0  0  0  0  0  0  0  0
    3.5739   -2.6443   -3.8735 H   0  0  0  0  0  0  0  0  0  0  0  0
    5.3590   -2.6676   -3.7089 H   0  0  0  0  0  0  0  0  0  0  0  0
    4.5531    0.6021   -3.0790 H   0  0  0  0  0  0  0  0  0  0  0  0
    4.3144    2.3684   -1.6772 H   0  0  0  0  0  0  0  0  0  0  0  0
    4.1457    1.9585    4.6771 H   0  0  0  0  0  0  0  0  0  0  0  0
    4.0395   -0.0033    5.9091 H   0  0  0  0  0  0  0  0  0  0  0  0
    3.4655   -2.2822    5.8779 H   0  0  0  0  0  0  0  0  0  0  0  0
    1.9326   -0.8503    4.2847 H   0  0  0  0  0  0  0  0  0  0  0  0
    4.1697   -3.5986    3.8940 H   0  0  0  0  0  0  0  0  0  0  0  0
    5.8515   -2.8297    5.7878 H   0  0  0  0  0  0  0  0  0  0  0  0
    6.2370   -4.0892    3.5561 H   0  0  0  0  0  0  0  0  0  0  0  0
    7.9821   -3.6651    4.9852 H   0  0  0  0  0  0  0  0  0  0  0  0
    6.5633   -2.7209    1.5519 H   0  0  0  0  0  0  0  0  0  0  0  0
    9.8308   -2.3712    5.9447 H   0  0  0  0  0  0  0  0  0  0  0  0
    9.2462   -1.1371    9.2174 H   0  0  0  0  0  0  0  0  0  0  0  0
    8.2802    0.5713   10.7720 H   0  0  0  0  0  0  0  0  0  0  0  0
    7.1654    1.7617   10.1389 H   0  0  0  0  0  0  0  0  0  0  0  0
    8.9113    2.0896   10.0920 H   0  0  0  0  0  0  0  0  0  0  0  0
    7.6262    3.1442    8.1228 H   0  0  0  0  0  0  0  0  0  0  0  0
    7.4154   -0.7820    0.7275 H   0  0  0  0  0  0  0  0  0  0  0  0
    3.9001   -3.9842   -0.4725 H   0  0  0  0  0  0  0  0  0  0  0  0
  1  2  1  0  0  0  0
  1 43  1  0  0  0  0
  1 44  1  0  0  0  0
  1 45  1  0  0  0  0
  2  3  2  0  0  0  0
  2 41  1  0  0  0  0
  3  4  1  0  0  0  0
  3 46  1  0  0  0  0
  4  5  1  0  0  0  0
  4  6  2  0  0  0  0
  5 47  1  0  0  0  0
  6  7  1  0  0  0  0
  6 40  1  0  0  0  0
  7  8  2  0  0  0  0
  7  9  1  0  0  0  0
  9 10  2  0  0  0  0
  9 37  1  0  0  0  0
 10 11  1  0  0  0  0
 10 12  1  0  0  0  0
 11 48  1  0  0  0  0
 12 13  1  0  0  0  0
 12 35  1  0  0  0  0
 12 49  1  0  0  0  0
 13 14  1  0  0  0  0
 13 15  1  0  0  0  0
 13 50  1  0  0  0  0
 14 51  1  0  0  0  0
 15 16  1  0  0  0  0
 15 37  1  0  0  0  0
 15 52  1  0  0  0  0
 16 17  1  0  0  0  0
 16 35  1  0  0  0  0
 16 53  1  0  0  0  0
 17 18  1  0  0  0  0
 17 19  1  0  0  0  0
 17 54  1  0  0  0  0
 18 55  1  0  0  0  0
 19 20  1  0  0  0  0
 19 37  1  0  0  0  0
 19 56  1  0  0  0  0
 20 21  2  0  0  0  0
 20 36  1  0  0  0  0
 21 22  1  0  0  0  0
 21 35  1  0  0  0  0
 22 23  2  0  0  0  0
 22 24  1  0  0  0  0
 24 25  2  0  0  0  0
 24 32  1  0  0  0  0
 25 26  1  0  0  0  0
 25 27  1  0  0  0  0
 26 57  1  0  0  0  0
 27 28  2  0  0  0  0
 27 58  1  0  0  0  0
 28 29  1  0  0  0  0
 28 30  1  0  0  0  0
 29 59  1  0  0  0  0
 29 60  1  0  0  0  0
 29 61  1  0  0  0  0
 30 31  1  0  0  0  0
 30 32  2  0  0  0  0
 31 62  1  0  0  0  0
 32 33  1  0  0  0  0
 33 34  2  0  0  0  0
 33 35  1  0  0  0  0
 36 63  1  0  0  0  0
 37 38  1  0  0  0  0
 38 39  2  0  0  0  0
 38 40  1  0  0  0  0
 40 41  2  0  0  0  0
 41 42  1  0  0  0  0
 42 64  1  0  0  0  0
M  END
$$$$

 OpenBabel12201709243D

 26 27  0  0  0  0  0  0  0  0999 V2000
    1.0639    0.2352    0.2850 N   0  0  0  0  0  0  0  0  0  0  0  0
    2.4439    0.1192    0.0741 C   0  0  0  0  0  0  0  0  0  0  0  0
    3.2167    1.2528   -0.1628 C   0  0  0  0  0  0  0  0  0  0  0  0
    4.6017    1.1478   -0.3154 C   0  0  0  0  0  0  0  0  0  0  0  0
    5.2543   -0.0839   -0.1816 C   0  0  0  0  0  0  0  0  0  0  0  0
    6.6384   -0.1366   -0.4148 N   0  0  0  0  0  0  0  0  0  0  0  0
    7.6347   -1.0109    0.0513 C   0  0  0  0  0  0  0  0  0  0  0  0
    8.6910   -1.3645   -0.8013 C   0  0  0  0  0  0  0  0  0  0  0  0
    9.7315   -2.1855   -0.3580 C   0  0  0  0  0  0  0  0  0  0  0  0
    9.7293   -2.6622    0.9498 C   0  0  0  0  0  0  0  0  0  0  0  0
    8.6771   -2.3366    1.8030 C   0  0  0  0  0  0  0  0  0  0  0  0
    7.6292   -1.5261    1.3514 C   0  0  0  0  0  0  0  0  0  0  0  0
    4.4916   -1.1953    0.1824 C   0  0  0  0  0  0  0  0  0  0  0  0
    3.0997   -1.0919    0.3160 C   0  0  0  0  0  0  0  0  0  0  0  0
    0.6488    1.0293   -0.1951 H   0  0  0  0  0  0  0  0  0  0  0  0
    0.5573   -0.6243    0.0978 H   0  0  0  0  0  0  0  0  0  0  0  0
    2.7488    2.2299   -0.2471 H   0  0  0  0  0  0  0  0  0  0  0  0
    5.1786    2.0454   -0.5249 H   0  0  0  0  0  0  0  0  0  0  0  0
    6.8884    0.3400   -1.2765 H   0  0  0  0  0  0  0  0  0  0  0  0
    8.7138   -1.0011   -1.8255 H   0  0  0  0  0  0  0  0  0  0  0  0
   10.5453   -2.4419   -1.0311 H   0  0  0  0  0  0  0  0  0  0  0  0
   10.5493   -3.2815    1.3046 H   0  0  0  0  0  0  0  0  0  0  0  0
    8.6775   -2.6985    2.8274 H   0  0  0  0  0  0  0  0  0  0  0  0
    6.8333   -1.2581    2.0408 H   0  0  0  0  0  0  0  0  0  0  0  0
    4.9620   -2.1637    0.3255 H   0  0  0  0  0  0  0  0  0  0  0  0
    2.5301   -1.9750    0.5911 H   0  0  0  0  0  0  0  0  0  0  0  0
  1  2  1  0  0  0  0
  1 15  1  0  0  0  0
  1 16  1  0  0  0  0
  2  3  2  0  0  0  0
  2 14  1  0  0  0  0
  3  4  1  0  0  0  0
  3 17  1  0  0  0  0
  4  5  2  0  0  0  0
  4 18  1  0  0  0  0
  5  6  1  0  0  0  0
  5 13  1  0  0  0  0
  6  7  1  0  0  0  0
  6 19  1  0  0  0  0
  7  8  2  0  0  0  0
  7 12  1  0  0  0  0
  8  9  1  0  0  0  0
  8 20  1  0  0  0  0
  9 10  2  0  0  0  0
  9 21  1  0  0  0  0
 10 11  1  0  0  0  0
 10 22  1  0  0  0  0
 11 12  2  0  0  0  0
 11 23  1  0  0  0  0
 12 24  1  0  0  0  0
 13 14  2  0  0  0  0
 13 25  1  0  0  0  0
 14 26  1  0  0  0  0
M  END
$$$$

 OpenBabel12201709243D

 22 23  0  0  0  0  0  0  0  0999 V2000
    0.9100    0.1073   -0.1927 N   0  0  0  0  0  0  0  0  0  0  0  0
    2.3160    0.0970   -0.0415 C   0  0  0  0  0  0  0  0  0  0  0  0
    2.9802    1.3277   -0.1133 C   0  0  0  0  0  0  0  0  0  0  0  0
    4.3657    1.3906   -0.0702 C   0  0  0  0  0  0  0  0  0  0  0  0
    5.1080    0.2155    0.0150 C   0  0  0  0  0  0  0  0  0  0  0  0
    4.4927   -1.0560    0.0342 C   0  0  0  0  0  0  0  0  0  0  0  0
    5.2435   -2.2653    0.1093 C   0  0  0  0  0  0  0  0  0  0  0  0
    6.6581   -2.2735    0.1161 N   0  0  0  0  0  0  0  0  0  0  0  0
    4.5922   -3.4961   -0.0372 C   0  0  0  0  0  0  0  0  0  0  0  0
    3.2096   -3.5597   -0.1330 C   0  0  0  0  0  0  0  0  0  0  0  0
    2.4615   -2.3850   -0.1184 C   0  0  0  0  0  0  0  0  0  0  0  0
    3.0706   -1.1125   -0.0387 C   0  0  0  0  0  0  0  0  0  0  0  0
    0.4863    0.9846    0.0929 H   0  0  0  0  0  0  0  0  0  0  0  0
    0.4561   -0.6817    0.2534 H   0  0  0  0  0  0  0  0  0  0  0  0
    2.4154    2.2515   -0.2044 H   0  0  0  0  0  0  0  0  0  0  0  0
    4.8704    2.3516   -0.1174 H   0  0  0  0  0  0  0  0  0  0  0  0
    6.1905    0.3071    0.0252 H   0  0  0  0  0  0  0  0  0  0  0  0
    7.0541   -1.4893    0.6227 H   0  0  0  0  0  0  0  0  0  0  0  0
    7.0474   -3.1530    0.4413 H   0  0  0  0  0  0  0  0  0  0  0  0
    5.1644   -4.4191   -0.0736 H   0  0  0  0  0  0  0  0  0  0  0  0
    2.7129   -4.5209   -0.2320 H   0  0  0  0  0  0  0  0  0  0  0  0
    1.3832   -2.4783   -0.2111 H   0  0  0  0  0  0  0  0  0  0  0  0
  1  2  1  0  0  0  0
  1 13  1  0  0  0  0
  1 14  1  0  0  0  0
  2  3  2  0  0  0  0
  2 12  1  0  0  0  0
  3  4  1  0  0  0  0
  3 15  1  0  0  0  0
  4  5  2  0  0  0  0
  4 16  1  0  0  0  0
  5  6  1  0  0  0  0
  5 17  1  0  0  0  0
  6  7  2  0  0  0  0
  6 12  1  0  0  0  0
  7  8  1  0  0  0  0
  7  9  1  0  0  0  0
  8 18  1  0  0  0  0
  8 19  1  0  0  0  0
  9 10  2  0  0  0  0
  9 20  1  0  0  0  0
 10 11  1  0  0  0  0
 10 21  1  0  0  0  0
 11 12  2  0  0  0  0
 11 22  1  0  0  0  0
M  END
$$$$

 OpenBabel12201709243D

 25 25  0  0  1  0  0  0  0  0999 V2000
    1.1609    0.0409    0.2026 C   0  0  0  0  0  0  0  0  0  0  0  0
    2.6387   -0.1572   -0.0218 C   0  0  0  0  0  0  0  0  0  0  0  0
    3.2370   -1.3082    0.3325 C   0  0  0  0  0  0  0  0  0  0  0  0
    3.4432    1.0011   -0.6201 C   0  0  3  0  0  0  0  0  0  0  0  0
    2.9348    1.4154   -2.0132 C   0  0  0  0  0  0  0  0  0  0  0  0
    2.6547    2.8640   -2.2310 C   0  0  0  0  0  0  0  0  0  0  0  0
    2.8165    3.8444   -1.3353 C   0  0  0  0  0  0  0  0  0  0  0  0
    2.5309    5.2860   -1.6288 C   0  0  0  0  0  0  0  0  0  0  0  0
    3.3142    3.5324    0.0266 C   0  0  0  0  0  0  0  0  0  0  0  0
    3.4690    4.4470    0.8391 O   0  0  0  0  0  0  0  0  0  0  0  0
    3.6354    2.1129    0.4205 C   0  0  0  0  0  0  0  0  0  0  0  0
    0.7189   -0.7962    0.7546 H   0  0  0  0  0  0  0  0  0  0  0  0
    0.6262    0.1193   -0.7482 H   0  0  0  0  0  0  0  0  0  0  0  0
    0.9714    0.9485    0.7829 H   0  0  0  0  0  0  0  0  0  0  0  0
    2.6793   -2.1272    0.7779 H   0  0  0  0  0  0  0  0  0  0  0  0
    4.3042   -1.4634    0.2025 H   0  0  0  0  0  0  0  0  0  0  0  0
    4.4556    0.6066   -0.8028 H   0  0  0  0  0  0  0  0  0  0  0  0
    2.0372    0.8546   -2.2976 H   0  0  0  0  0  0  0  0  0  0  0  0
    3.6920    1.1208   -2.7531 H   0  0  0  0  0  0  0  0  0  0  0  0
    2.2927    3.1193   -3.2263 H   0  0  0  0  0  0  0  0  0  0  0  0
    2.1764    5.4323   -2.6546 H   0  0  0  0  0  0  0  0  0  0  0  0
    3.4364    5.8893   -1.5034 H   0  0  0  0  0  0  0  0  0  0  0  0
    1.7593    5.6699   -0.9535 H   0  0  0  0  0  0  0  0  0  0  0  0
    3.0595    1.9084    1.3317 H   0  0  0  0  0  0  0  0  0  0  0  0
    4.6918    2.1157    0.7224 H   0  0  0  0  0  0  0  0  0  0  0  0
  1  2  1  0  0  0  0
  1 12  1  0  0  0  0
  1 13  1  0  0  0  0
  1 14  1  0  0  0  0
  2  3  2  0  0  0  0
  2  4  1  0  0  0  0
  3 15  1  0  0  0  0
  3 16  1  0  0  0  0
  4  5  1  0  0  0  0
  4 11  1  0  0  0  0
  4 17  1  0  0  0  0
  5  6  1  0  0  0  0
  5 18  1  0  0  0  0
  5 19  1  0  0  0  0
  6  7  2  0  0  0  0
  6 20  1  0  0  0  0
  7  8  1  0  0  0  0
  7  9  1  0  0  0  0
  8 21  1  0  0  0  0
  8 22  1  0  0  0  0
  8 23  1  0  0  0  0
  9 10  2  0  0  0  0
  9 11  1  0  0  0  0
 11 24  1  0  0  0  0
 11 25  1  0  0  0  0
M  END
$$$$

 OpenBabel12201709243D

 32 31  0  0  0  0  0  0  0  0999 V2000
    3.2894   -1.2960    0.1486 C   0  0  0  0  0  0  0  0  0  0  0  0
    2.5891    0.0535   -0.0548 C   0  0  0  0  0  0  0  0  0  0  0  0
    2.6192    0.8786    1.2358 C   0  0  0  0  0  0  0  0  0  0  0  0
    3.0840    0.8335   -1.2200 N   0  0  0  0  0  0  0  0  0  0  0  0
    2.1301    1.1628   -2.3188 C   0  0  0  0  0  0  0  0  0  0  0  0
    2.0842    0.0449   -3.3630 C   0  0  0  0  0  0  0  0  0  0  0  0
    0.7143    1.5382   -1.8691 C   0  0  0  0  0  0  0  0  0  0  0  0
    4.4576    1.1523   -1.2668 C   0  0  0  0  0  0  0  0  0  0  0  0
    5.2563    0.8648   -0.3862 O   0  0  0  0  0  0  0  0  0  0  0  0
    5.0224    2.0285   -2.6880 S   0  0  0  0  0  0  0  0  0  0  0  0
    6.7742    2.2320   -2.2615 C   0  0  0  0  0  0  0  0  0  0  0  0
    7.4754    2.9752   -3.3704 C   0  0  0  0  0  0  0  0  0  0  0  0
    7.7693    4.2797   -3.4071 C   0  0  0  0  0  0  0  0  0  0  0  0
    7.3528    5.4200   -2.1987 Cl  0  0  0  0  0  0  0  0  0  0  0  0
    7.9950    1.9831   -4.7047 Cl  0  0  0  0  0  0  0  0  0  0  0  0
    2.7734   -1.8723    0.9267 H   0  0  0  0  0  0  0  0  0  0  0  0
    4.3283   -1.1909    0.4722 H   0  0  0  0  0  0  0  0  0  0  0  0
    3.2754   -1.8895   -0.7706 H   0  0  0  0  0  0  0  0  0  0  0  0
    1.5430   -0.2034   -0.2412 H   0  0  0  0  0  0  0  0  0  0  0  0
    3.6288    1.2135    1.4911 H   0  0  0  0  0  0  0  0  0  0  0  0
    2.2427    0.2925    2.0815 H   0  0  0  0  0  0  0  0  0  0  0  0
    1.9907    1.7697    1.1391 H   0  0  0  0  0  0  0  0  0  0  0  0
    2.4920    2.0615   -2.8239 H   0  0  0  0  0  0  0  0  0  0  0  0
    1.6843   -0.8816   -2.9391 H   0  0  0  0  0  0  0  0  0  0  0  0
    3.0813   -0.1751   -3.7580 H   0  0  0  0  0  0  0  0  0  0  0  0
    1.4501    0.3348   -4.2084 H   0  0  0  0  0  0  0  0  0  0  0  0
    0.1403    0.6758   -1.5185 H   0  0  0  0  0  0  0  0  0  0  0  0
    0.1583    1.9651   -2.7123 H   0  0  0  0  0  0  0  0  0  0  0  0
    0.7403    2.2893   -1.0737 H   0  0  0  0  0  0  0  0  0  0  0  0
    7.2363    1.2506   -2.1138 H   0  0  0  0  0  0  0  0  0  0  0  0
    6.8562    2.7712   -1.3121 H   0  0  0  0  0  0  0  0  0  0  0  0
    8.2873    4.7530   -4.2333 H   0  0  0  0  0  0  0  0  0  0  0  0
  1  2  1  0  0  0  0
  1 16  1  0  0  0  0
  1 17  1  0  0  0  0
  1 18  1  0  0  0  0
  2  3  1  0  0  0  0
  2  4  1  0  0  0  0
  2 19  1  0  0  0  0
  3 20  1  0  0  0  0
  3 21  1  0  0  0  0
  3 22  1  0  0  0  0
  4  5  1  0  0  0  0
  4  8  1  0  0  0  0
  5  6  1  0  0  0  0
  5  7  1  0  0  0  0
  5 23  1  0  0  0  0
  6 24  1  0  0  0  0
  6 25  1  0  0  0  0
  6 26  1  0  0  0  0
  7 27  1  0  0  0  0
  7 28  1  0  0  0  0
  7 29  1  0  0  0  0
  8  9  2  0  0  0  0
  8 10  1  0  0  0  0
 10 11  1  0  0  0  0
 11 12  1  0  0  0  0
 11 30  1  0  0  0  0
 11 31  1  0  0  0  0
 12 13  2  3  0  0  0
 12 15  1  0  0  0  0
 13 14  1  0  0  0  0
 13 32  1  0  0  0  0
M  END
$$$$

 OpenBabel12201709243D

 47 50  0  0  1  0  0  0  0  0999 V2000
   15.7903   -5.4097   -4.5139 C   0  0  0  0  0  0  0  0  0  0  0  0
   14.3722   -4.9119   -4.6617 C   0  0  0  0  0  0  0  0  0  0  0  0
   13.8906   -4.6383   -5.7542 O   0  0  0  0  0  0  0  0  0  0  0  0
   13.7438   -4.6614   -3.4676 O   0  0  0  0  0  0  0  0  0  0  0  0
   12.8066   -3.5218   -3.5010 C   0  0  3  0  0  0  0  0  0  0  0  0
   13.7949   -2.2514   -3.8486 C   0  0  3  0  0  0  0  0  0  0  0  0
   13.6316   -1.6906   -5.1564 O   0  0  0  0  0  0  0  0  0  0  0  0
   13.4017   -1.3110   -2.6921 C   0  0  3  0  0  0  0  0  0  0  0  0
   12.4737   -0.2207   -2.4443 O   0  0  0  0  0  0  0  0  0  0  0  0
   11.0740   -0.6536   -2.4640 C   0  0  3  0  0  0  0  0  0  0  0  0
   10.5439   -0.9307   -3.8860 C   0  0  0  0  0  0  0  0  0  0  0  0
    9.2229   -0.8082   -4.0460 C   0  0  0  0  0  0  0  0  0  0  0  0
    8.6658    0.5041   -4.4931 C   0  0  0  0  0  0  0  0  0  0  0  0
    8.4727   -1.6263   -3.0313 C   0  0  0  0  0  0  0  0  0  0  0  0
    7.2356   -1.5993   -3.0590 O   0  0  0  0  0  0  0  0  0  0  0  0
    9.2686   -2.3083   -1.8616 C   0  0  3  0  0  0  0  0  0  0  0  0
    8.4831   -1.8629   -0.7061 O   0  0  0  0  0  0  0  0  0  0  0  0
   10.8176   -1.9440   -1.6327 C   0  0  3  0  0  0  0  0  0  0  0  0
   10.9573   -1.4590   -0.1299 C   0  0  0  0  0  0  0  0  0  0  0  0
   10.5769   -2.4531    0.8082 O   0  0  0  0  0  0  0  0  0  0  0  0
   12.0822   -3.1490   -1.9461 C   0  0  3  0  0  0  0  0  0  0  0  0
   11.8123   -4.4279   -1.1559 C   0  0  0  0  0  0  0  0  0  0  0  0
   13.2903   -2.3085   -1.5399 C   0  0  3  0  0  0  0  0  0  0  0  0
   14.0871   -2.2674   -0.2391 C   0  0  0  0  0  0  0  0  0  0  0  0
   14.4954   -3.0873   -1.3186 O   0  0  0  0  0  0  0  0  0  0  0  0
   15.8930   -6.3736   -5.0188 H   0  0  0  0  0  0  0  0  0  0  0  0
   16.0850   -5.5101   -3.4671 H   0  0  0  0  0  0  0  0  0  0  0  0
   16.4753   -4.6871   -4.9820 H   0  0  0  0  0  0  0  0  0  0  0  0
   12.0215   -3.7247   -4.2403 H   0  0  0  0  0  0  0  0  0  0  0  0
   14.8552   -2.5090   -3.7560 H   0  0  0  0  0  0  0  0  0  0  0  0
   12.6998   -1.7250   -5.4274 H   0  0  0  0  0  0  0  0  0  0  0  0
   12.5939   -1.4859   -3.3575 H   0  0  0  0  0  0  0  0  0  0  0  0
   10.5084    0.1958   -2.0580 H   0  0  0  0  0  0  0  0  0  0  0  0
   10.8453   -1.9363   -4.1979 H   0  0  0  0  0  0  0  0  0  0  0  0
    9.0602    1.3144   -3.8689 H   0  0  0  0  0  0  0  0  0  0  0  0
    7.5765    0.5376   -4.4543 H   0  0  0  0  0  0  0  0  0  0  0  0
    8.9751    0.6989   -5.5270 H   0  0  0  0  0  0  0  0  0  0  0  0
    9.1153   -3.3867   -1.9229 H   0  0  0  0  0  0  0  0  0  0  0  0
    7.9596   -1.0722   -0.9636 H   0  0  0  0  0  0  0  0  0  0  0  0
   10.3492   -0.5643    0.0566 H   0  0  0  0  0  0  0  0  0  0  0  0
   11.9644   -1.1318    0.1230 H   0  0  0  0  0  0  0  0  0  0  0  0
    9.6039   -2.3618    0.8981 H   0  0  0  0  0  0  0  0  0  0  0  0
   10.7489   -4.6898   -1.1849 H   0  0  0  0  0  0  0  0  0  0  0  0
   12.1058   -4.3447   -0.1062 H   0  0  0  0  0  0  0  0  0  0  0  0
   12.3411   -5.2929   -1.5647 H   0  0  0  0  0  0  0  0  0  0  0  0
   13.7071   -2.7663    0.6436 H   0  0  0  0  0  0  0  0  0  0  0  0
   14.6960   -1.3968   -0.0299 H   0  0  0  0  0  0  0  0  0  0  0  0
  1  2  1  0  0  0  0
  1 26  1  0  0  0  0
  1 27  1  0  0  0  0
  1 28  1  0  0  0  0
  2  3  2  0  0  0  0
  2  4  1  0  0  0  0
  4  5  1  0  0  0  0
  5  6  1  0  0  0  0
  5 21  1  0  0  0  0
  5 29  1  0  0  0  0
  6  7  1  0  0  0  0
  6  8  1  0  0  0  0
  6 30  1  0  0  0  0
  7 31  1  0  0  0  0
  8  9  1  0  0  0  0
  8 23  1  0  0  0  0
  8 32  1  0  0  0  0
  9 10  1  0  0  0  0
 10 11  1  0  0  0  0
 10 18  1  0  0  0  0
 10 33  1  0  0  0  0
 11 12  2  0  0  0  0
 11 34  1  0  0  0  0
 12 13  1  0  0  0  0
 12 14  1  0  0  0  0
 13 35  1  0  0  0  0
 13 36  1  0  0  0  0
 13 37  1  0  0  0  0
 14 15  2  0  0  0  0
 14 16  1  0  0  0  0
 16 17  1  0  0  0  0
 16 18  1  0  0  0  0
 16 38  1  0  0  0  0
 17 39  1  0  0  0  0
 18 19  1  0  0  0  0
 18 21  1  0  0  0  0
 19 20  1  0  0  0  0
 19 40  1  0  0  0  0
 19 41  1  0  0  0  0
 20 42  1  0  0  0  0
 21 22  1  0  0  0  0
 21 23  1  0  0  0  0
 22 43  1  0  0  0  0
 22 44  1  0  0  0  0
 22 45  1  0  0  0  0
 23 24  1  0  0  0  0
 23 25  1  0  0  0  0
 24 25  1  0  0  0  0
 24 46  1  0  0  0  0
 24 47  1  0  0  0  0
M  END
$$$$

 OpenBabel12201709243D

 89 93  0  0  0  0  0  0  0  0999 V2000
    4.2046    3.0486    4.2405 C   0  0  0  0  0  0  0  0  0  0  0  0
    5.0404    1.9381    3.6166 C   0  0  0  0  0  0  0  0  0  0  0  0
    4.4557    1.4617    2.3347 N   0  0  0  0  0  0  0  0  0  0  0  0
    3.6260    0.2478    2.4572 C   0  0  0  0  0  0  0  0  0  0  0  0
    2.2665    0.3451    1.7877 C   0  0  0  0  0  0  0  0  0  0  0  0
    1.3826   -0.7460    1.9054 C   0  0  0  0  0  0  0  0  0  0  0  0
    0.0807   -0.6832    1.3982 C   0  0  0  0  0  0  0  0  0  0  0  0
   -0.3477    0.4548    0.7218 C   0  0  0  0  0  0  0  0  0  0  0  0
    0.5463    1.5097    0.5338 C   0  0  0  0  0  0  0  0  0  0  0  0
    1.8307    1.4781    1.0872 C   0  0  0  0  0  0  0  0  0  0  0  0
    0.0458    2.9001   -0.4391 S   0  0  0  0  0  0  0  0  0  0  0  0
    0.7154    4.0787    0.0689 O   0  0  0  0  0  0  0  0  0  0  0  0
    0.1308    2.5087   -1.8281 O   0  0  0  0  0  0  0  0  0  0  0  0
   -1.5096    3.1148   -0.0687 O   0  0  0  0  0  0  0  0  0  0  0  0
    5.2639    1.6661    1.2036 C   0  0  0  0  0  0  0  0  0  0  0  0
    5.4468    0.7347    0.1724 C   0  0  0  0  0  0  0  0  0  0  0  0
    6.4326    0.9060   -0.8285 C   0  0  0  0  0  0  0  0  0  0  0  0
    7.2632    2.0323   -0.8474 C   0  0  0  0  0  0  0  0  0  0  0  0
    6.9679    3.0283    0.0960 C   0  0  0  0  0  0  0  0  0  0  0  0
    5.9668    2.8664    1.0597 C   0  0  0  0  0  0  0  0  0  0  0  0
    8.5225    2.1132   -1.7042 C   0  0  0  0  0  0  0  0  0  0  0  0
    8.9423    3.3272   -2.1920 C   0  0  0  0  0  0  0  0  0  0  0  0
    8.0465    4.4938   -2.2685 C   0  0  0  0  0  0  0  0  0  0  0  0
    8.5145    5.7464   -2.1988 C   0  0  0  0  0  0  0  0  0  0  0  0
    9.9985    5.9726   -2.1104 C   0  0  0  0  0  0  0  0  0  0  0  0
   10.5164    7.0620   -1.6042 N   0  0  0  0  0  0  0  0  0  0  0  0
    9.7109    8.0817   -0.8066 C   0  0  0  0  0  0  0  0  0  0  0  0
    9.2123    9.2239   -1.6723 C   0  0  0  0  0  0  0  0  0  0  0  0
   11.9993    7.3674   -1.6386 C   0  0  0  0  0  0  0  0  0  0  0  0
   12.8172    6.8562   -0.4704 C   0  0  0  0  0  0  0  0  0  0  0  0
   14.1865    7.1892   -0.4293 C   0  0  0  0  0  0  0  0  0  0  0  0
   15.0030    6.7949    0.6375 C   0  0  0  0  0  0  0  0  0  0  0  0
   14.4802    6.0226    1.6697 C   0  0  0  0  0  0  0  0  0  0  0  0
   13.1409    5.6407    1.6143 C   0  0  0  0  0  0  0  0  0  0  0  0
   12.3044    6.0695    0.5720 C   0  0  0  0  0  0  0  0  0  0  0  0
   12.5175    4.5184    2.8460 S   0  0  0  0  0  0  0  0  0  0  0  0
   13.3252    3.3242    2.7891 O   0  0  0  0  0  0  0  0  0  0  0  0
   12.3265    5.2871    4.0547 O   0  0  0  0  0  0  0  0  0  0  0  0
   11.0579    4.1051    2.2920 O   0  0  0  0  0  0  0  0  0  0  0  0
   10.8055    4.8295   -2.6832 C   0  0  0  0  0  0  0  0  0  0  0  0
   10.2777    3.5792   -2.7370 C   0  0  0  0  0  0  0  0  0  0  0  0
    9.3242    0.8484   -1.9773 C   0  0  0  0  0  0  0  0  0  0  0  0
    8.9387    0.1278   -3.1339 C   0  0  0  0  0  0  0  0  0  0  0  0
    9.5049   -1.1159   -3.4740 C   0  0  0  0  0  0  0  0  0  0  0  0
   10.5134   -1.6441   -2.6893 C   0  0  0  0  0  0  0  0  0  0  0  0
   11.0825   -2.8539   -2.9351 O   0  0  0  0  0  0  0  0  0  0  0  0
   10.9460   -0.9477   -1.5791 C   0  0  0  0  0  0  0  0  0  0  0  0
   10.3272    0.2624   -1.1922 C   0  0  0  0  0  0  0  0  0  0  0  0
   10.8696    0.8176    0.3925 S   0  0  0  0  0  0  0  0  0  0  0  0
   12.2803    1.0991    0.2821 O   0  0  0  0  0  0  0  0  0  0  0  0
    9.9838    1.8336    0.9177 O   0  0  0  0  0  0  0  0  0  0  0  0
   10.6821   -0.4905    1.3296 O   0  0  0  0  0  0  0  0  0  0  0  0
    4.8603    3.7838    4.7223 H   0  0  0  0  0  0  0  0  0  0  0  0
    3.5518    2.6458    5.0222 H   0  0  0  0  0  0  0  0  0  0  0  0
    3.5827    3.5761    3.5115 H   0  0  0  0  0  0  0  0  0  0  0  0
    5.1326    1.1097    4.3307 H   0  0  0  0  0  0  0  0  0  0  0  0
    6.0710    2.2953    3.4975 H   0  0  0  0  0  0  0  0  0  0  0  0
    3.4177    0.0595    3.5196 H   0  0  0  0  0  0  0  0  0  0  0  0
    4.1634   -0.6410    2.1051 H   0  0  0  0  0  0  0  0  0  0  0  0
    1.7006   -1.6570    2.4106 H   0  0  0  0  0  0  0  0  0  0  0  0
   -0.5954   -1.5261    1.5250 H   0  0  0  0  0  0  0  0  0  0  0  0
   -1.3603    0.5020    0.3264 H   0  0  0  0  0  0  0  0  0  0  0  0
    2.4915    2.3337    0.9643 H   0  0  0  0  0  0  0  0  0  0  0  0
   -1.5771    3.9409    0.4550 H   0  0  0  0  0  0  0  0  0  0  0  0
    4.8658   -0.1825    0.1388 H   0  0  0  0  0  0  0  0  0  0  0  0
    6.5481    0.1105   -1.5603 H   0  0  0  0  0  0  0  0  0  0  0  0
    7.5445    3.9452    0.1567 H   0  0  0  0  0  0  0  0  0  0  0  0
    5.7863    3.6897    1.7474 H   0  0  0  0  0  0  0  0  0  0  0  0
    6.9807    4.3180   -2.4116 H   0  0  0  0  0  0  0  0  0  0  0  0
    7.8334    6.5896   -2.2523 H   0  0  0  0  0  0  0  0  0  0  0  0
   10.3614    8.4750   -0.0160 H   0  0  0  0  0  0  0  0  0  0  0  0
    8.8850    7.5653   -0.3083 H   0  0  0  0  0  0  0  0  0  0  0  0
   10.0367    9.8066   -2.0962 H   0  0  0  0  0  0  0  0  0  0  0  0
    8.6114    9.9095   -1.0619 H   0  0  0  0  0  0  0  0  0  0  0  0
    8.5821    8.8787   -2.4970 H   0  0  0  0  0  0  0  0  0  0  0  0
   12.0913    8.4599   -1.6810 H   0  0  0  0  0  0  0  0  0  0  0  0
   12.4030    6.9881   -2.5820 H   0  0  0  0  0  0  0  0  0  0  0  0
   14.6442    7.7669   -1.2331 H   0  0  0  0  0  0  0  0  0  0  0  0
   16.0546    7.0787    0.6555 H   0  0  0  0  0  0  0  0  0  0  0  0
   15.1171    5.7088    2.4955 H   0  0  0  0  0  0  0  0  0  0  0  0
   11.2614    5.7678    0.5971 H   0  0  0  0  0  0  0  0  0  0  0  0
   11.0453    3.1359    2.1054 H   0  0  0  0  0  0  0  0  0  0  0  0
   11.8129    4.9856   -3.0401 H   0  0  0  0  0  0  0  0  0  0  0  0
   10.8599    2.7633   -3.1462 H   0  0  0  0  0  0  0  0  0  0  0  0
    8.1443    0.5106   -3.7746 H   0  0  0  0  0  0  0  0  0  0  0  0
    9.1435   -1.6523   -4.3459 H   0  0  0  0  0  0  0  0  0  0  0  0
   10.5314   -3.3617   -3.5532 H   0  0  0  0  0  0  0  0  0  0  0  0
   11.7602   -1.3795   -0.9844 H   0  0  0  0  0  0  0  0  0  0  0  0
    9.8198   -0.9312    1.1757 H   0  0  0  0  0  0  0  0  0  0  0  0
  1  2  1  0  0  0  0
  1 53  1  0  0  0  0
  1 54  1  0  0  0  0
  1 55  1  0  0  0  0
  2  3  1  0  0  0  0
  2 56  1  0  0  0  0
  2 57  1  0  0  0  0
  3  4  1  0  0  0  0
  3 15  1  0  0  0  0
  4  5  1  0  0  0  0
  4 58  1  0  0  0  0
  4 59  1  0  0  0  0
  5  6  2  0  0  0  0
  5 10  1  0  0  0  0
  6  7  1  0  0  0  0
  6 60  1  0  0  0  0
  7  8  2  0  0  0  0
  7 61  1  0  0  0  0
  8  9  1  0  0  0  0
  8 62  1  0  0  0  0
  9 10  2  0  0  0  0
  9 11  1  0  0  0  0
 10 63  1  0  0  0  0
 11 12  2  0  0  0  0
 11 13  2  0  0  0  0
 11 14  1  0  0  0  0
 14 64  1  0  0  0  0
 15 16  2  0  0  0  0
 15 20  1  0  0  0  0
 16 17  1  0  0  0  0
 16 65  1  0  0  0  0
 17 18  2  0  0  0  0
 17 66  1  0  0  0  0
 18 19  1  0  0  0  0
 18 21  1  0  0  0  0
 19 20  2  0  0  0  0
 19 67  1  0  0  0  0
 20 68  1  0  0  0  0
 21 22  2  3  0  0  0
 21 42  1  0  0  0  0
 22 23  1  0  0  0  0
 22 41  1  0  0  0  0
 23 24  2  0  0  0  0
 23 69  1  0  0  0  0
 24 25  1  0  0  0  0
 24 70  1  0  0  0  0
 25 26  2  3  0  0  0
 25 40  1  0  0  0  0
 26 27  1  0  0  0  0
 26 29  1  0  0  0  0
 27 28  1  0  0  0  0
 27 71  1  0  0  0  0
 27 72  1  0  0  0  0
 28 73  1  0  0  0  0
 28 74  1  0  0  0  0
 28 75  1  0  0  0  0
 29 30  1  0  0  0  0
 29 76  1  0  0  0  0
 29 77  1  0  0  0  0
 30 31  2  0  0  0  0
 30 35  1  0  0  0  0
 31 32  1  0  0  0  0
 31 78  1  0  0  0  0
 32 33  2  0  0  0  0
 32 79  1  0  0  0  0
 33 34  1  0  0  0  0
 33 80  1  0  0  0  0
 34 35  2  0  0  0  0
 34 36  1  0  0  0  0
 35 81  1  0  0  0  0
 36 37  2  0  0  0  0
 36 38  2  0  0  0  0
 36 39  1  0  0  0  0
 39 82  1  0  0  0  0
 40 41  2  0  0  0  0
 40 83  1  0  0  0  0
 41 84  1  0  0  0  0
 42 43  2  0  0  0  0
 42 48  1  0  0  0  0
 43 44  1  0  0  0  0
 43 85  1  0  0  0  0
 44 45  2  0  0  0  0
 44 86  1  0  0  0  0
 45 46  1  0  0  0  0
 45 47  1  0  0  0  0
 46 87  1  0  0  0  0
 47 48  2  0  0  0  0
 47 88  1  0  0  0  0
 48 49  1  0  0  0  0
 49 50  2  0  0  0  0
 49 51  2  0  0  0  0
 49 52  1  0  0  0  0
 52 89  1  0  0  0  0
M  END
$$$$

 OpenBabel12201709243D

 22 26  0  0  1  0  0  0  0  0999 V2000
    0.8783    0.1562    0.3500 Cl  0  0  0  0  0  0  0  0  0  0  0  0
    2.6459   -0.0207    0.3508 C   0  0  3  0  0  0  0  0  0  0  0  0
    3.4147   -0.0351   -1.0776 C   0  0  3  0  0  0  0  0  0  0  0  0
    2.5388    0.1180   -2.5977 Cl  0  0  0  0  0  0  0  0  0  0  0  0
    4.6364    0.8874   -0.7672 C   0  0  3  0  0  0  0  0  0  0  0  0
    5.6098    1.5253   -2.1292 Cl  0  0  0  0  0  0  0  0  0  0  0  0
    5.2266   -0.4064   -0.0680 C   0  0  3  0  0  0  0  0  0  0  0  0
    6.8271   -1.2495    0.0531 Cl  0  0  0  0  0  0  0  0  0  0  0  0
    4.6008   -0.1031    1.2497 C   0  0  3  0  0  0  0  0  0  0  0  0
    5.8464    0.4239    2.4901 Cl  0  0  0  0  0  0  0  0  0  0  0  0
    3.5337    1.0026    1.0551 C   0  0  3  0  0  0  0  0  0  0  0  0
    2.8092    1.7368    2.5867 Cl  0  0  0  0  0  0  0  0  0  0  0  0
    4.0339    2.0282    0.0888 C   0  0  0  0  0  0  0  0  0  0  0  0
    5.1295    3.2241    0.7273 Cl  0  0  0  0  0  0  0  0  0  0  0  0
    2.7049    2.9010   -0.7144 Cl  0  0  0  0  0  0  0  0  0  0  0  0
    3.3376   -1.1644    1.1860 C   0  0  3  0  0  0  0  0  0  0  0  0
    2.5937   -1.7256    2.6941 Cl  0  0  0  0  0  0  0  0  0  0  0  0
    3.4894   -2.2366    0.1207 C   0  0  0  0  0  0  0  0  0  0  0  0
    1.9640   -2.8217   -0.6184 Cl  0  0  0  0  0  0  0  0  0  0  0  0
    4.3839   -3.6607    0.6542 Cl  0  0  0  0  0  0  0  0  0  0  0  0
    4.2310   -1.3073   -0.8294 C   0  0  3  0  0  0  0  0  0  0  0  0
    4.8927   -2.1567   -2.3130 Cl  0  0  0  0  0  0  0  0  0  0  0  0
  1  2  1  0  0  0  0
  2  3  1  0  0  0  0
  2 11  1  0  0  0  0
  2 16  1  0  0  0  0
  3  4  1  0  0  0  0
  3  5  1  0  0  0  0
  3 21  1  0  0  0  0
  5  6  1  0  0  0  0
  5  7  1  0  0  0  0
  5 13  1  0  0  0  0
  7  8  1  0  0  0  0
  7  9  1  0  0  0  0
  7 21  1  0  0  0  0
  9 10  1  0  0  0  0
  9 11  1  0  0  0  0
  9 16  1  0  0  0  0
 11 12  1  0  0  0  0
 11 13  1  0  0  0  0
 13 14  1  0  0  0  0
 13 15  1  0  0  0  0
 16 17  1  0  0  0  0
 16 18  1  0  0  0  0
 18 19  1  0  0  0  0
 18 20  1  0  0  0  0
 18 21  1  0  0  0  0
 21 22  1  0  0  0  0
M  END
$$$$

 OpenBabel12201709243D

 27 28  0  0  1  0  0  0  0  0999 V2000
    1.0654   -0.1423   -0.2793 Cl  0  0  0  0  0  0  0  0  0  0  0  0
    2.8695   -0.2371   -0.2154 C   0  0  0  0  0  0  0  0  0  0  0  0
    3.4880    1.4258   -0.4989 Cl  0  0  0  0  0  0  0  0  0  0  0  0
    3.4086   -0.8955    1.0869 C   0  0  0  0  0  0  0  0  0  0  0  0
    2.9401    0.0402    2.5649 Cl  0  0  0  0  0  0  0  0  0  0  0  0
    2.6660   -2.5435    1.2561 Cl  0  0  0  0  0  0  0  0  0  0  0  0
    5.2797   -1.0778    1.0503 S   0  0  0  0  0  0  0  0  0  0  0  0
    5.5694   -1.6982    2.6035 N   0  0  0  0  0  0  0  0  0  0  0  0
    6.1730   -1.0023    3.6242 C   0  0  0  0  0  0  0  0  0  0  0  0
    6.7431    0.0762    3.5578 O   0  0  0  0  0  0  0  0  0  0  0  0
    5.9878   -1.8050    4.9021 C   0  0  3  0  0  0  0  0  0  0  0  0
    7.2629   -1.9178    5.7354 C   0  0  0  0  0  0  0  0  0  0  0  0
    7.7855   -3.3029    5.9536 C   0  0  0  0  0  0  0  0  0  0  0  0
    7.1330   -4.4181    5.6158 C   0  0  0  0  0  0  0  0  0  0  0  0
    5.7905   -4.4372    4.9714 C   0  0  0  0  0  0  0  0  0  0  0  0
    5.3131   -3.0967    4.4286 C   0  0  3  0  0  0  0  0  0  0  0  0
    5.3969   -3.0161    2.9283 C   0  0  0  0  0  0  0  0  0  0  0  0
    5.2657   -3.9594    2.1612 O   0  0  0  0  0  0  0  0  0  0  0  0
    3.1608   -0.8296   -1.0888 H   0  0  0  0  0  0  0  0  0  0  0  0
    5.2580   -1.2297    5.4880 H   0  0  0  0  0  0  0  0  0  0  0  0
    7.0518   -1.5067    6.7351 H   0  0  0  0  0  0  0  0  0  0  0  0
    8.0703   -1.3039    5.3270 H   0  0  0  0  0  0  0  0  0  0  0  0
    8.7438   -3.3901    6.4604 H   0  0  0  0  0  0  0  0  0  0  0  0
    7.5770   -5.3871    5.8464 H   0  0  0  0  0  0  0  0  0  0  0  0
    5.0714   -4.7872    5.7215 H   0  0  0  0  0  0  0  0  0  0  0  0
    5.7978   -5.2040    4.1862 H   0  0  0  0  0  0  0  0  0  0  0  0
    4.2367   -3.0177    4.6442 H   0  0  0  0  0  0  0  0  0  0  0  0
  1  2  1  0  0  0  0
  2  3  1  0  0  0  0
  2  4  1  0  0  0  0
  2 19  1  0  0  0  0
  4  5  1  0  0  0  0
  4  6  1  0  0  0  0
  4  7  1  0  0  0  0
  7  8  1  0  0  0  0
  8  9  1  0  0  0  0
  8 17  1  0  0  0  0
  9 10  2  0  0  0  0
  9 11  1  0  0  0  0
 11 12  1  0  0  0  0
 11 16  1  0  0  0  0
 11 20  1  0  0  0  0
 12 13  1  0  0  0  0
 12 21  1  0  0  0  0
 12 22  1  0  0  0  0
 13 14  2  0  0  0  0
 13 23  1  0  0  0  0
 14 15  1  0  0  0  0
 14 24  1  0  0  0  0
 15 16  1  0  0  0  0
 15 25  1  0  0  0  0
 15 26  1  0  0  0  0
 16 17  1  0  0  0  0
 16 27  1  0  0  0  0
 17 18  2  0  0  0  0
M  END
$$$$

 OpenBabel12201709243D

 37 39  0  0  0  0  0  0  0  0999 V2000
    1.0354    0.2168   -0.1475 C   0  0  0  0  0  0  0  0  0  0  0  0
    2.5324    0.1486   -0.2193 C   0  0  0  0  0  0  0  0  0  0  0  0
    3.2258    0.6751   -1.3112 C   0  0  0  0  0  0  0  0  0  0  0  0
    4.6219    0.6020   -1.3679 C   0  0  0  0  0  0  0  0  0  0  0  0
    5.3696    0.0144   -0.3348 C   0  0  0  0  0  0  0  0  0  0  0  0
    6.7765   -0.1111   -0.4441 N   0  0  0  0  0  0  0  0  0  0  0  0
    7.3202    0.9705   -0.7717 N   0  0  0  0  0  0  0  0  0  0  0  0
    8.7094    0.8165   -1.0413 C   0  0  0  0  0  0  0  0  0  0  0  0
    9.5735    0.2067   -0.1102 C   0  0  0  0  0  0  0  0  0  0  0  0
    9.1279   -0.2676    1.0951 O   0  0  0  0  0  0  0  0  0  0  0  0
   10.9321    0.0624   -0.3564 C   0  0  0  0  0  0  0  0  0  0  0  0
   11.4693    0.5382   -1.5464 C   0  0  0  0  0  0  0  0  0  0  0  0
   10.6571    1.1686   -2.4974 C   0  0  0  0  0  0  0  0  0  0  0  0
   11.2244    1.6429   -3.6912 C   0  0  0  0  0  0  0  0  0  0  0  0
   10.4440    2.2839   -4.6504 C   0  0  0  0  0  0  0  0  0  0  0  0
    9.0868    2.4694   -4.4211 C   0  0  0  0  0  0  0  0  0  0  0  0
    8.5055    2.0003   -3.2372 C   0  0  0  0  0  0  0  0  0  0  0  0
    9.2658    1.3290   -2.2509 C   0  0  0  0  0  0  0  0  0  0  0  0
    4.6648   -0.5218    0.7555 C   0  0  0  0  0  0  0  0  0  0  0  0
    3.2597   -0.4420    0.8191 C   0  0  0  0  0  0  0  0  0  0  0  0
    5.3559   -1.1622    1.8569 N   0  0  0  0  0  0  0  0  0  0  0  0
    4.8529   -1.1228    2.9628 O   0  0  0  0  0  0  0  0  0  0  0  0
    6.5424   -1.8570    1.6899 O   0  0  0  0  0  0  0  0  0  0  0  0
    0.6096    0.6227   -1.0712 H   0  0  0  0  0  0  0  0  0  0  0  0
    0.7241    0.8607    0.6811 H   0  0  0  0  0  0  0  0  0  0  0  0
    0.6172   -0.7848   -0.0031 H   0  0  0  0  0  0  0  0  0  0  0  0
    2.6866    1.1411   -2.1326 H   0  0  0  0  0  0  0  0  0  0  0  0
    5.1310    1.0057   -2.2398 H   0  0  0  0  0  0  0  0  0  0  0  0
    8.1814   -0.0459    1.1588 H   0  0  0  0  0  0  0  0  0  0  0  0
   11.5702   -0.4158    0.3819 H   0  0  0  0  0  0  0  0  0  0  0  0
   12.5374    0.4212   -1.7204 H   0  0  0  0  0  0  0  0  0  0  0  0
   12.2879    1.5147   -3.8851 H   0  0  0  0  0  0  0  0  0  0  0  0
   10.8990    2.6391   -5.5715 H   0  0  0  0  0  0  0  0  0  0  0  0
    8.4780    2.9793   -5.1627 H   0  0  0  0  0  0  0  0  0  0  0  0
    7.4414    2.1693   -3.0878 H   0  0  0  0  0  0  0  0  0  0  0  0
    2.7311   -0.8502    1.6822 H   0  0  0  0  0  0  0  0  0  0  0  0
    6.6654   -1.8485    0.7282 H   0  0  0  0  0  0  0  0  0  0  0  0
  1  2  1  0  0  0  0
  1 24  1  0  0  0  0
  1 25  1  0  0  0  0
  1 26  1  0  0  0  0
  2  3  2  0  0  0  0
  2 20  1  0  0  0  0
  3  4  1  0  0  0  0
  3 27  1  0  0  0  0
  4  5  2  0  0  0  0
  4 28  1  0  0  0  0
  5  6  1  0  0  0  0
  5 19  1  0  0  0  0
  6  7  2  3  0  0  0
  7  8  1  0  0  0  0
  8  9  2  0  0  0  0
  8 18  1  0  0  0  0
  9 10  1  0  0  0  0
  9 11  1  0  0  0  0
 10 29  1  0  0  0  0
 11 12  2  0  0  0  0
 11 30  1  0  0  0  0
 12 13  1  0  0  0  0
 12 31  1  0  0  0  0
 13 14  2  0  0  0  0
 13 18  1  0  0  0  0
 14 15  1  0  0  0  0
 14 32  1  0  0  0  0
 15 16  2  0  0  0  0
 15 33  1  0  0  0  0
 16 17  1  0  0  0  0
 16 34  1  0  0  0  0
 17 18  2  0  0  0  0
 17 35  1  0  0  0  0
 19 20  2  0  0  0  0
 19 21  1  0  0  0  0
 20 36  1  0  0  0  0
 21 22  2  0  0  0  0
 21 23  1  0  0  0  0
 23 37  1  0  0  0  0
M  END
$$$$

 OpenBabel12201709243D

 88 93  0  0  0  0  0  0  0  0999 V2000
    1.2382    0.5661    0.0993 C   0  0  0  0  0  0  0  0  0  0  0  0
    2.4875    0.1294   -0.2528 O   0  0  0  0  0  0  0  0  0  0  0  0
    3.0578   -1.1002   -0.1610 C   0  0  0  0  0  0  0  0  0  0  0  0
    4.3743   -1.1509   -0.6104 C   0  0  0  0  0  0  0  0  0  0  0  0
    5.1034   -2.3493   -0.6787 C   0  0  0  0  0  0  0  0  0  0  0  0
    4.4643   -3.5225   -0.2201 C   0  0  0  0  0  0  0  0  0  0  0  0
    3.1618   -3.4930    0.2454 C   0  0  0  0  0  0  0  0  0  0  0  0
    2.4273   -2.2985    0.2737 C   0  0  0  0  0  0  0  0  0  0  0  0
    1.0821   -2.3355    0.7180 N   0  0  0  0  0  0  0  0  0  0  0  0
    0.5076   -3.4221    0.9454 N   0  0  0  0  0  0  0  0  0  0  0  0
   -0.8044   -3.5273    1.4834 C   0  0  0  0  0  0  0  0  0  0  0  0
   -1.3890   -2.5005    2.2873 C   0  0  0  0  0  0  0  0  0  0  0  0
   -0.6785   -1.4097    2.6312 O   0  0  0  0  0  0  0  0  0  0  0  0
   -2.7279   -2.6309    2.7654 C   0  0  0  0  0  0  0  0  0  0  0  0
   -3.4164   -1.6357    3.5494 C   0  0  0  0  0  0  0  0  0  0  0  0
   -2.8726   -0.3733    3.9388 N   0  0  0  0  0  0  0  0  0  0  0  0
   -4.7342   -1.8841    3.9624 C   0  0  0  0  0  0  0  0  0  0  0  0
   -5.3919   -3.0635    3.6390 C   0  0  0  0  0  0  0  0  0  0  0  0
   -4.7445   -4.0324    2.8889 C   0  0  0  0  0  0  0  0  0  0  0  0
   -3.4311   -3.8314    2.4491 C   0  0  0  0  0  0  0  0  0  0  0  0
   -2.8303   -4.8386    1.6923 C   0  0  0  0  0  0  0  0  0  0  0  0
   -1.5380   -4.6996    1.2056 C   0  0  0  0  0  0  0  0  0  0  0  0
   -0.8973   -6.0641    0.1989 S   0  0  0  0  0  0  0  0  0  0  0  0
   -1.9132   -6.4807   -0.8769 O   0  0  0  0  0  0  0  0  0  0  0  0
    0.2758   -5.6362   -0.6948 O   0  0  0  0  0  0  0  0  0  0  0  0
   -0.3813   -7.5370    0.9255 O   0  0  0  0  0  0  0  0  0  0  0  0
   -2.0210   -8.4950    1.6859 Na  0  0  0  0  0  0  0  0  0  0  0  0
   -7.0821   -3.3142    4.1705 S   0  0  0  0  0  0  0  0  0  0  0  0
   -7.3773   -4.8001    4.4237 O   0  0  0  0  0  0  0  0  0  0  0  0
   -7.3656   -2.7139    5.5556 O   0  0  0  0  0  0  0  0  0  0  0  0
   -8.3505   -2.7714    3.1509 O   0  0  0  0  0  0  0  0  0  0  0  0
   -8.0217   -0.7686    2.9792 Na  0  0  0  0  0  0  0  0  0  0  0  0
    6.4640   -2.3793   -1.3251 C   0  0  0  0  0  0  0  0  0  0  0  0
    7.0925   -1.2103   -1.8090 C   0  0  0  0  0  0  0  0  0  0  0  0
    8.2812   -1.2823   -2.5177 C   0  0  0  0  0  0  0  0  0  0  0  0
    8.8852   -2.5204   -2.7841 C   0  0  0  0  0  0  0  0  0  0  0  0
   10.0529   -2.5992   -3.5786 N   0  0  0  0  0  0  0  0  0  0  0  0
   10.5260   -1.5983   -4.1491 N   0  0  0  0  0  0  0  0  0  0  0  0
   11.6539   -1.6387   -5.0172 C   0  0  0  0  0  0  0  0  0  0  0  0
   12.1188   -0.3985   -5.5351 C   0  0  0  0  0  0  0  0  0  0  0  0
   11.4733    0.7337   -5.1833 O   0  0  0  0  0  0  0  0  0  0  0  0
   13.2458   -0.3470   -6.4128 C   0  0  0  0  0  0  0  0  0  0  0  0
   13.7969    0.8550   -6.9909 C   0  0  0  0  0  0  0  0  0  0  0  0
   13.2933    2.1721   -6.7685 N   0  0  0  0  0  0  0  0  0  0  0  0
   14.9146    0.7577   -7.8437 C   0  0  0  0  0  0  0  0  0  0  0  0
   15.4991   -0.4693   -8.1390 C   0  0  0  0  0  0  0  0  0  0  0  0
   14.9800   -1.6279   -7.5932 C   0  0  0  0  0  0  0  0  0  0  0  0
   13.8739   -1.5854   -6.7436 C   0  0  0  0  0  0  0  0  0  0  0  0
   13.3998   -2.7899   -6.2339 C   0  0  0  0  0  0  0  0  0  0  0  0
   12.3073   -2.8456   -5.3850 C   0  0  0  0  0  0  0  0  0  0  0  0
   11.8363   -4.5083   -4.8462 S   0  0  0  0  0  0  0  0  0  0  0  0
   11.9418   -4.7283   -3.3291 O   0  0  0  0  0  0  0  0  0  0  0  0
   10.3521   -4.7983   -5.1163 O   0  0  0  0  0  0  0  0  0  0  0  0
   12.6334   -5.8512   -5.5639 O   0  0  0  0  0  0  0  0  0  0  0  0
   14.6041   -5.6987   -5.0768 Na  0  0  0  0  0  0  0  0  0  0  0  0
   16.9139   -0.5869   -9.2307 S   0  0  0  0  0  0  0  0  0  0  0  0
   17.8147    0.6536   -9.1407 O   0  0  0  0  0  0  0  0  0  0  0  0
   17.8885   -1.6919   -8.7949 O   0  0  0  0  0  0  0  0  0  0  0  0
   16.6453   -0.8418  -10.9057 O   0  0  0  0  0  0  0  0  0  0  0  0
   15.6237   -2.6046  -10.9793 Na  0  0  0  0  0  0  0  0  0  0  0  0
    8.3021   -3.6951   -2.2882 C   0  0  0  0  0  0  0  0  0  0  0  0
    8.8789   -4.9008   -2.5514 O   0  0  0  0  0  0  0  0  0  0  0  0
    8.3836   -6.1248   -2.1394 C   0  0  0  0  0  0  0  0  0  0  0  0
    7.1090   -3.6080   -1.5565 C   0  0  0  0  0  0  0  0  0  0  0  0
    1.1117    1.5808   -0.3372 H   0  0  0  0  0  0  0  0  0  0  0  0
    1.1584    0.6501    1.2007 H   0  0  0  0  0  0  0  0  0  0  0  0
    0.4581   -0.0851   -0.3391 H   0  0  0  0  0  0  0  0  0  0  0  0
    4.7819   -0.2158   -0.9476 H   0  0  0  0  0  0  0  0  0  0  0  0
    4.9163   -4.4976   -0.2245 H   0  0  0  0  0  0  0  0  0  0  0  0
    2.7184   -4.4282    0.5648 H   0  0  0  0  0  0  0  0  0  0  0  0
    0.2667   -1.2640    2.5337 H   0  0  0  0  0  0  0  0  0  0  0  0
   -1.9518   -0.0086    3.6931 H   0  0  0  0  0  0  0  0  0  0  0  0
   -3.4438    0.2766    4.4989 H   0  0  0  0  0  0  0  0  0  0  0  0
   -5.2626   -1.1382    4.5433 H   0  0  0  0  0  0  0  0  0  0  0  0
   -5.2721   -4.9467    2.6423 H   0  0  0  0  0  0  0  0  0  0  0  0
   -3.3804   -5.7468    1.4649 H   0  0  0  0  0  0  0  0  0  0  0  0
    6.6869   -0.2218   -1.6871 H   0  0  0  0  0  0  0  0  0  0  0  0
    8.7096   -0.3616   -2.9039 H   0  0  0  0  0  0  0  0  0  0  0  0
   10.7018    0.7755   -4.6011 H   0  0  0  0  0  0  0  0  0  0  0  0
   12.4931    2.4100   -6.1795 H   0  0  0  0  0  0  0  0  0  0  0  0
   13.7495    2.9778   -7.2231 H   0  0  0  0  0  0  0  0  0  0  0  0
   15.3360    1.6518   -8.2852 H   0  0  0  0  0  0  0  0  0  0  0  0
   15.4439   -2.5776   -7.8352 H   0  0  0  0  0  0  0  0  0  0  0  0
   13.8944   -3.7137   -6.5087 H   0  0  0  0  0  0  0  0  0  0  0  0
    9.0198   -6.9386   -2.5336 H   0  0  0  0  0  0  0  0  0  0  0  0
    7.3497   -6.2763   -2.5267 H   0  0  0  0  0  0  0  0  0  0  0  0
    8.3733   -6.1802   -1.0285 H   0  0  0  0  0  0  0  0  0  0  0  0
    6.6789   -4.5216   -1.2165 H   0  0  0  0  0  0  0  0  0  0  0  0
  1  2  1  0  0  0  0
  1 65  1  0  0  0  0
  1 66  1  0  0  0  0
  1 67  1  0  0  0  0
  2  3  1  0  0  0  0
  3  4  2  0  0  0  0
  3  8  1  0  0  0  0
  4  5  1  0  0  0  0
  4 68  1  0  0  0  0
  5  6  2  0  0  0  0
  5 33  1  0  0  0  0
  6  7  1  0  0  0  0
  6 69  1  0  0  0  0
  7  8  2  0  0  0  0
  7 70  1  0  0  0  0
  8  9  1  0  0  0  0
  9 10  2  3  0  0  0
 10 11  1  0  0  0  0
 11 12  2  0  0  0  0
 11 22  1  0  0  0  0
 12 13  1  0  0  0  0
 12 14  1  0  0  0  0
 13 71  1  0  0  0  0
 14 15  2  0  0  0  0
 14 20  1  0  0  0  0
 15 16  1  0  0  0  0
 15 17  1  0  0  0  0
 16 72  1  0  0  0  0
 16 73  1  0  0  0  0
 17 18  2  0  0  0  0
 17 74  1  0  0  0  0
 18 19  1  0  0  0  0
 18 28  1  0  0  0  0
 19 20  2  0  0  0  0
 19 75  1  0  0  0  0
 20 21  1  0  0  0  0
 21 22  2  0  0  0  0
 21 76  1  0  0  0  0
 22 23  1  0  0  0  0
 23 24  2  0  0  0  0
 23 25  2  0  0  0  0
 23 26  1  0  0  0  0
 26 27  1  0  0  0  0
 28 29  2  0  0  0  0
 28 30  2  0  0  0  0
 28 31  1  0  0  0  0
 31 32  1  0  0  0  0
 33 34  2  0  0  0  0
 33 64  1  0  0  0  0
 34 35  1  0  0  0  0
 34 77  1  0  0  0  0
 35 36  2  0  0  0  0
 35 78  1  0  0  0  0
 36 37  1  0  0  0  0
 36 61  1  0  0  0  0
 37 38  2  3  0  0  0
 38 39  1  0  0  0  0
 39 40  2  0  0  0  0
 39 50  1  0  0  0  0
 40 41  1  0  0  0  0
 40 42  1  0  0  0  0
 41 79  1  0  0  0  0
 42 43  2  0  0  0  0
 42 48  1  0  0  0  0
 43 44  1  0  0  0  0
 43 45  1  0  0  0  0
 44 80  1  0  0  0  0
 44 81  1  0  0  0  0
 45 46  2  0  0  0  0
 45 82  1  0  0  0  0
 46 47  1  0  0  0  0
 46 56  1  0  0  0  0
 47 48  2  0  0  0  0
 47 83  1  0  0  0  0
 48 49  1  0  0  0  0
 49 50  2  0  0  0  0
 49 84  1  0  0  0  0
 50 51  1  0  0  0  0
 51 52  2  0  0  0  0
 51 53  2  0  0  0  0
 51 54  1  0  0  0  0
 54 55  1  0  0  0  0
 56 57  2  0  0  0  0
 56 58  2  0  0  0  0
 56 59  1  0  0  0  0
 59 60  1  0  0  0  0
 61 62  1  0  0  0  0
 61 64  2  0  0  0  0
 62 63  1  0  0  0  0
 63 85  1  0  0  0  0
 63 86  1  0  0  0  0
 63 87  1  0  0  0  0
 64 88  1  0  0  0  0
M  END
$$$$

 OpenBabel12201709243D

 37 36  0  0  0  0  0  0  0  0999 V2000
    0.9615    0.0397   -0.1129 N   0  0  0  0  0  0  0  0  0  0  0  0
    2.4197    0.0392   -0.1145 C   0  0  0  0  0  0  0  0  0  0  0  0
    2.9482    0.6818    1.1659 C   0  0  0  0  0  0  0  0  0  0  0  0
    4.4774    0.6910    1.1899 C   0  0  0  0  0  0  0  0  0  0  0  0
    5.0053    1.3356    2.4720 C   0  0  0  0  0  0  0  0  0  0  0  0
    6.5331    1.3481    2.4972 C   0  0  0  0  0  0  0  0  0  0  0  0
    7.0619    1.9916    3.7796 C   0  0  0  0  0  0  0  0  0  0  0  0
    8.5898    2.0005    3.7973 C   0  0  0  0  0  0  0  0  0  0  0  0
    9.1346    2.6413    5.0741 C   0  0  0  0  0  0  0  0  0  0  0  0
   10.6632    2.6399    5.0714 C   0  0  0  0  0  0  0  0  0  0  0  0
   11.2317    3.2760    6.3378 C   0  0  0  0  0  0  0  0  0  0  0  0
   12.7435    3.2741    6.3313 C   0  0  0  0  0  0  0  0  0  0  0  0
   13.4481    2.8275    5.4414 O   0  0  0  0  0  0  0  0  0  0  0  0
   13.2609    3.8359    7.4492 O   0  0  0  0  0  0  0  0  0  0  0  0
    0.6229   -0.3431   -0.9946 H   0  0  0  0  0  0  0  0  0  0  0  0
    0.6190    0.9985   -0.0674 H   0  0  0  0  0  0  0  0  0  0  0  0
    2.7824    0.5866   -0.9914 H   0  0  0  0  0  0  0  0  0  0  0  0
    2.7769   -0.9932   -0.1937 H   0  0  0  0  0  0  0  0  0  0  0  0
    2.5726    0.1335    2.0392 H   0  0  0  0  0  0  0  0  0  0  0  0
    2.5768    1.7113    1.2472 H   0  0  0  0  0  0  0  0  0  0  0  0
    4.8560    1.2400    0.3192 H   0  0  0  0  0  0  0  0  0  0  0  0
    4.8533   -0.3366    1.1129 H   0  0  0  0  0  0  0  0  0  0  0  0
    4.6278    0.7856    3.3426 H   0  0  0  0  0  0  0  0  0  0  0  0
    4.6282    2.3627    2.5495 H   0  0  0  0  0  0  0  0  0  0  0  0
    6.9107    1.8987    1.6269 H   0  0  0  0  0  0  0  0  0  0  0  0
    6.9107    0.3213    2.4185 H   0  0  0  0  0  0  0  0  0  0  0  0
    6.6861    1.4409    4.6505 H   0  0  0  0  0  0  0  0  0  0  0  0
    6.6861    3.0190    3.8587 H   0  0  0  0  0  0  0  0  0  0  0  0
    8.9629    2.5494    2.9239 H   0  0  0  0  0  0  0  0  0  0  0  0
    8.9630    0.9722    3.7154 H   0  0  0  0  0  0  0  0  0  0  0  0
    8.7656    2.0928    5.9492 H   0  0  0  0  0  0  0  0  0  0  0  0
    8.7657    3.6708    5.1571 H   0  0  0  0  0  0  0  0  0  0  0  0
   11.0298    3.1827    4.1911 H   0  0  0  0  0  0  0  0  0  0  0  0
   11.0299    1.6097    4.9807 H   0  0  0  0  0  0  0  0  0  0  0  0
   10.8911    2.7183    7.2171 H   0  0  0  0  0  0  0  0  0  0  0  0
   10.8902    4.3142    6.4159 H   0  0  0  0  0  0  0  0  0  0  0  0
   12.5850    4.1506    8.0786 H   0  0  0  0  0  0  0  0  0  0  0  0
  1  2  1  0  0  0  0
  1 15  1  0  0  0  0
  1 16  1  0  0  0  0
  2  3  1  0  0  0  0
  2 17  1  0  0  0  0
  2 18  1  0  0  0  0
  3  4  1  0  0  0  0
  3 19  1  0  0  0  0
  3 20  1  0  0  0  0
  4  5  1  0  0  0  0
  4 21  1  0  0  0  0
  4 22  1  0  0  0  0
  5  6  1  0  0  0  0
  5 23  1  0  0  0  0
  5 24  1  0  0  0  0
  6  7  1  0  0  0  0
  6 25  1  0  0  0  0
  6 26  1  0  0  0  0
  7  8  1  0  0  0  0
  7 27  1  0  0  0  0
  7 28  1  0  0  0  0
  8  9  1  0  0  0  0
  8 29  1  0  0  0  0
  8 30  1  0  0  0  0
  9 10  1  0  0  0  0
  9 31  1  0  0  0  0
  9 32  1  0  0  0  0
 10 11  1  0  0  0  0
 10 33  1  0  0  0  0
 10 34  1  0  0  0  0
 11 12  1  0  0  0  0
 11 35  1  0  0  0  0
 11 36  1  0  0  0  0
 12 13  2  0  0  0  0
 12 14  1  0  0  0  0
 14 37  1  0  0  0  0
M  END
$$$$

 OpenBabel12201709243D

 19 19  0  0  0  0  0  0  0  0999 V2000
    3.2366    0.9115   -0.6777 C   0  0  0  0  0  0  0  0  0  0  0  0
    2.5162   -0.0183    0.1312 O   0  0  0  0  0  0  0  0  0  0  0  0
    3.2142   -0.6301    1.1473 C   0  0  0  0  0  0  0  0  0  0  0  0
    3.9299    0.0549    2.1463 C   0  0  0  0  0  0  0  0  0  0  0  0
    3.9758    1.7938    2.1739 Cl  0  0  0  0  0  0  0  0  0  0  0  0
    4.5493   -0.6669    3.1908 C   0  0  0  0  0  0  0  0  0  0  0  0
    5.5922    0.1681    4.3096 Cl  0  0  0  0  0  0  0  0  0  0  0  0
    4.3688   -2.0563    3.2936 C   0  0  0  0  0  0  0  0  0  0  0  0
    4.8735   -2.7620    4.4514 N   0  0  0  0  0  0  0  0  0  0  0  0
    4.6024   -2.3309    5.5530 O   0  0  0  0  0  0  0  0  0  0  0  0
    5.6150   -3.9300    4.3569 O   0  0  0  0  0  0  0  0  0  0  0  0
    3.6286   -2.7444    2.3186 C   0  0  0  0  0  0  0  0  0  0  0  0
    3.3852   -4.4597    2.4515 Cl  0  0  0  0  0  0  0  0  0  0  0  0
    3.0732   -2.0318    1.2385 C   0  0  0  0  0  0  0  0  0  0  0  0
    2.2025   -2.8718   -0.0159 Cl  0  0  0  0  0  0  0  0  0  0  0  0
    2.8694    0.8203   -1.7038 H   0  0  0  0  0  0  0  0  0  0  0  0
    4.3155    0.7318   -0.6832 H   0  0  0  0  0  0  0  0  0  0  0  0
    3.0090    1.9320   -0.3533 H   0  0  0  0  0  0  0  0  0  0  0  0
    5.4569   -4.2188    3.4470 H   0  0  0  0  0  0  0  0  0  0  0  0
  1  2  1  0  0  0  0
  1 16  1  0  0  0  0
  1 17  1  0  0  0  0
  1 18  1  0  0  0  0
  2  3  1  0  0  0  0
  3  4  2  0  0  0  0
  3 14  1  0  0  0  0
  4  5  1  0  0  0  0
  4  6  1  0  0  0  0
  6  7  1  0  0  0  0
  6  8  2  0  0  0  0
  8  9  1  0  0  0  0
  8 12  1  0  0  0  0
  9 10  2  0  0  0  0
  9 11  1  0  0  0  0
 11 19  1  0  0  0  0
 12 13  1  0  0  0  0
 12 14  2  0  0  0  0
 14 15  1  0  0  0  0
M  END
$$$$

 OpenBabel12201709243D

  9  8  0  0  0  0  0  0  0  0999 V2000
    1.2193   -0.0486    0.0806 Na  0  0  0  0  0  0  0  0  0  0  0  0
    3.2436   -0.0517    0.1143 O   0  0  0  0  0  0  0  0  0  0  0  0
    3.9297   -0.1590    1.2692 C   0  0  0  0  0  0  0  0  0  0  0  0
    5.2674   -0.1580    1.2593 C   0  0  0  0  0  0  0  0  0  0  0  0
    6.0398   -0.2741    2.5088 C   0  0  0  0  0  0  0  0  0  0  0  0
    7.2589   -0.2714    2.4799 O   0  0  0  0  0  0  0  0  0  0  0  0
    3.3824   -0.2457    2.2030 H   0  0  0  0  0  0  0  0  0  0  0  0
    5.8009   -0.0705    0.3171 H   0  0  0  0  0  0  0  0  0  0  0  0
    5.5385   -0.3629    3.4643 H   0  0  0  0  0  0  0  0  0  0  0  0
  1  2  1  0  0  0  0
  2  3  1  0  0  0  0
  3  4  2  3  0  0  0
  3  7  1  0  0  0  0
  4  5  1  0  0  0  0
  4  8  1  0  0  0  0
  5  6  2  0  0  0  0
  5  9  1  0  0  0  0
M  END
$$$$

 OpenBabel12201709243D

 21 23  0  0  0  0  0  0  0  0999 V2000
   -3.4343   -0.1999    0.0003 C   0  0  0  0  0  0  0  0  0  0  0  0
   -3.0518    1.1394    0.0003 C   0  0  0  0  0  0  0  0  0  0  0  0
   -1.6979    1.4943    0.0002 C   0  0  0  0  0  0  0  0  0  0  0  0
   -0.7155    0.4825    0.0001 C   0  0  0  0  0  0  0  0  0  0  0  0
   -1.1311   -0.8489    0.0003 C   0  0  0  0  0  0  0  0  0  0  0  0
   -2.4804   -1.2220    0.0003 C   0  0  0  0  0  0  0  0  0  0  0  0
    0.0038   -1.6261    0.0003 N   0  0  0  0  0  0  0  0  0  0  0  0
    0.0031   -2.6355    0.0004 H   0  0  0  0  0  0  0  0  0  0  0  0
    1.1339   -0.8446   -0.0001 C   0  0  0  0  0  0  0  0  0  0  0  0
    2.4769   -1.1978   -0.0003 C   0  0  0  0  0  0  0  0  0  0  0  0
    3.4140   -0.2230   -0.0007 N   0  0  0  0  0  0  0  0  0  0  0  0
    3.0158    1.0681   -0.0008 C   0  0  0  0  0  0  0  0  0  0  0  0
    1.6945    1.4894   -0.0005 C   0  0  0  0  0  0  0  0  0  0  0  0
    0.7156    0.4845   -0.0001 C   0  0  0  0  0  0  0  0  0  0  0  0
   -4.4916   -0.4556    0.0003 H   0  0  0  0  0  0  0  0  0  0  0  0
   -3.8105    1.9182    0.0002 H   0  0  0  0  0  0  0  0  0  0  0  0
   -1.4096    2.5412    0.0001 H   0  0  0  0  0  0  0  0  0  0  0  0
   -2.7835   -2.2640    0.0004 H   0  0  0  0  0  0  0  0  0  0  0  0
    2.8304   -2.2213   -0.0002 H   0  0  0  0  0  0  0  0  0  0  0  0
    3.8244    1.7944   -0.0012 H   0  0  0  0  0  0  0  0  0  0  0  0
    1.4388    2.5413   -0.0006 H   0  0  0  0  0  0  0  0  0  0  0  0
  1  2  2  0  0  0  0
  1  6  1  0  0  0  0
  1 15  1  0  0  0  0
  2  3  1  0  0  0  0
  2 16  1  0  0  0  0
  3  4  2  0  0  0  0
  3 17  1  0  0  0  0
  4  5  1  0  0  0  0
  4 14  1  0  0  0  0
  5  6  2  0  0  0  0
  5  7  1  0  0  0  0
  6 18  1  0  0  0  0
  7  8  1  0  0  0  0
  7  9  1  0  0  0  0
  9 10  2  0  0  0  0
  9 14  1  0  0  0  0
 10 11  1  0  0  0  0
 10 19  1  0  0  0  0
 11 12  2  0  0  0  0
 12 13  1  0  0  0  0
 12 20  1  0  0  0  0
 13 14  2  0  0  0  0
 13 21  1  0  0  0  0
M  END
$$$$

 OpenBabel12201709243D

 22 23  0  0  0  0  0  0  0  0999 V2000
    1.4400   -0.8590   -0.3802 O   0  0  0  0  0  0  0  0  0  0  0  0
    2.1881    0.1406    0.1960 N   0  0  0  0  0  0  0  0  0  0  0  0
    2.1778    1.2424   -0.3106 O   0  0  0  0  0  0  0  0  0  0  0  0
    2.9398   -0.1079    1.3575 C   0  0  0  0  0  0  0  0  0  0  0  0
    3.7141    0.8145    2.0386 C   0  0  0  0  0  0  0  0  0  0  0  0
    4.2660    0.1429    3.1551 C   0  0  0  0  0  0  0  0  0  0  0  0
    3.8200   -1.1612    3.0927 C   0  0  0  0  0  0  0  0  0  0  0  0
    3.0181   -1.3180    1.9981 O   0  0  0  0  0  0  0  0  0  0  0  0
    4.1689   -2.2417    4.0570 C   0  0  0  0  0  0  0  0  0  0  0  0
    3.7633   -3.5507    3.8856 C   0  0  0  0  0  0  0  0  0  0  0  0
    4.4245   -4.5242    5.1365 S   0  0  0  0  0  0  0  0  0  0  0  0
    5.1189   -3.1268    5.8196 C   0  0  0  0  0  0  0  0  0  0  0  0
    5.8020   -3.3299    6.9791 N   0  0  0  0  0  0  0  0  0  0  0  0
    6.2862   -2.2872    7.7058 C   0  0  0  0  0  0  0  0  0  0  0  0
    6.8987   -2.4423    8.7565 O   0  0  0  0  0  0  0  0  0  0  0  0
    4.9338   -1.9973    5.1862 N   0  0  0  0  0  0  0  0  0  0  0  0
    1.0698   -0.3353   -1.1104 H   0  0  0  0  0  0  0  0  0  0  0  0
    3.8528    1.8514    1.7591 H   0  0  0  0  0  0  0  0  0  0  0  0
    4.9221    0.5504    3.9129 H   0  0  0  0  0  0  0  0  0  0  0  0
    3.1553   -3.9725    3.0976 H   0  0  0  0  0  0  0  0  0  0  0  0
    5.9263   -4.2657    7.3336 H   0  0  0  0  0  0  0  0  0  0  0  0
    6.0716   -1.2873    7.2936 H   0  0  0  0  0  0  0  0  0  0  0  0
  1  2  1  0  0  0  0
  1 17  1  0  0  0  0
  2  3  2  0  0  0  0
  2  4  1  0  0  0  0
  4  5  2  0  0  0  0
  4  8  1  0  0  0  0
  5  6  1  0  0  0  0
  5 18  1  0  0  0  0
  6  7  2  0  0  0  0
  6 19  1  0  0  0  0
  7  8  1  0  0  0  0
  7  9  1  0  0  0  0
  9 10  2  0  0  0  0
  9 16  1  0  0  0  0
 10 11  1  0  0  0  0
 10 20  1  0  0  0  0
 11 12  1  0  0  0  0
 12 13  1  0  0  0  0
 12 16  2  0  0  0  0
 13 14  1  0  0  0  0
 13 21  1  0  0  0  0
 14 15  2  0  0  0  0
 14 22  1  0  0  0  0
M  END
$$$$

 OpenBabel12201709243D

 41 42  0  0  0  0  0  0  0  0999 V2000
    2.3068   -1.4249   -0.3502 C   0  0  0  0  0  0  0  0  0  0  0  0
    2.4585    0.0089   -0.0913 N   0  0  0  0  0  0  0  0  0  0  0  0
    2.4839    0.8677   -1.2722 C   0  0  0  0  0  0  0  0  0  0  0  0
    3.1758    0.3923    1.0478 C   0  0  0  0  0  0  0  0  0  0  0  0
    3.9102    1.5870    1.1145 C   0  0  0  0  0  0  0  0  0  0  0  0
    4.6778    1.9409    2.2373 C   0  0  0  0  0  0  0  0  0  0  0  0
    4.6982    1.1158    3.3596 C   0  0  0  0  0  0  0  0  0  0  0  0
    3.9063   -0.0382    3.3537 C   0  0  0  0  0  0  0  0  0  0  0  0
    3.1735   -0.3923    2.2135 C   0  0  0  0  0  0  0  0  0  0  0  0
    5.5400    1.4717    4.5413 C   0  0  0  0  0  0  0  0  0  0  0  0
    5.7067    2.7075    4.9066 N   0  0  0  0  0  0  0  0  0  0  0  0
    6.1934    0.3945    5.3498 C   0  0  0  0  0  0  0  0  0  0  0  0
    6.6041   -0.8046    4.7735 C   0  0  0  0  0  0  0  0  0  0  0  0
    7.0974   -1.8391    5.5774 C   0  0  0  0  0  0  0  0  0  0  0  0
    7.2188   -1.7210    6.9722 C   0  0  0  0  0  0  0  0  0  0  0  0
    6.8809   -0.4693    7.5129 C   0  0  0  0  0  0  0  0  0  0  0  0
    6.3810    0.5777    6.7194 C   0  0  0  0  0  0  0  0  0  0  0  0
    7.6664   -2.7806    7.7435 N   0  0  0  0  0  0  0  0  0  0  0  0
    8.2370   -2.6041    9.0732 C   0  0  0  0  0  0  0  0  0  0  0  0
    7.3862   -4.1651    7.3684 C   0  0  0  0  0  0  0  0  0  0  0  0
    1.8665   -1.6093   -1.3371 H   0  0  0  0  0  0  0  0  0  0  0  0
    1.6296   -1.8890    0.3743 H   0  0  0  0  0  0  0  0  0  0  0  0
    3.2754   -1.9372   -0.3261 H   0  0  0  0  0  0  0  0  0  0  0  0
    1.8964    0.4377   -2.0918 H   0  0  0  0  0  0  0  0  0  0  0  0
    3.5050    1.0104   -1.6427 H   0  0  0  0  0  0  0  0  0  0  0  0
    2.0328    1.8413   -1.0488 H   0  0  0  0  0  0  0  0  0  0  0  0
    3.9329    2.2756    0.2736 H   0  0  0  0  0  0  0  0  0  0  0  0
    5.2656    2.8539    2.2043 H   0  0  0  0  0  0  0  0  0  0  0  0
    3.8492   -0.6791    4.2310 H   0  0  0  0  0  0  0  0  0  0  0  0
    2.5869   -1.3064    2.2673 H   0  0  0  0  0  0  0  0  0  0  0  0
    5.1822    3.3537    4.3108 H   0  0  0  0  0  0  0  0  0  0  0  0
    6.5478   -0.9617    3.7011 H   0  0  0  0  0  0  0  0  0  0  0  0
    7.4129   -2.7488    5.0741 H   0  0  0  0  0  0  0  0  0  0  0  0
    6.9589   -0.2813    8.5793 H   0  0  0  0  0  0  0  0  0  0  0  0
    6.1163    1.5244    7.1838 H   0  0  0  0  0  0  0  0  0  0  0  0
    8.4667   -1.5667    9.3293 H   0  0  0  0  0  0  0  0  0  0  0  0
    9.1852   -3.1508    9.1297 H   0  0  0  0  0  0  0  0  0  0  0  0
    7.5670   -3.0117    9.8381 H   0  0  0  0  0  0  0  0  0  0  0  0
    6.8802   -4.2850    6.4063 H   0  0  0  0  0  0  0  0  0  0  0  0
    6.7366   -4.6327    8.1175 H   0  0  0  0  0  0  0  0  0  0  0  0
    8.3217   -4.7325    7.3275 H   0  0  0  0  0  0  0  0  0  0  0  0
  1  2  1  0  0  0  0
  1 21  1  0  0  0  0
  1 22  1  0  0  0  0
  1 23  1  0  0  0  0
  2  3  1  0  0  0  0
  2  4  1  0  0  0  0
  3 24  1  0  0  0  0
  3 25  1  0  0  0  0
  3 26  1  0  0  0  0
  4  5  2  0  0  0  0
  4  9  1  0  0  0  0
  5  6  1  0  0  0  0
  5 27  1  0  0  0  0
  6  7  2  0  0  0  0
  6 28  1  0  0  0  0
  7  8  1  0  0  0  0
  7 10  1  0  0  0  0
  8  9  2  0  0  0  0
  8 29  1  0  0  0  0
  9 30  1  0  0  0  0
 10 11  2  0  0  0  0
 10 12  1  0  0  0  0
 11 31  1  0  0  0  0
 12 13  2  0  0  0  0
 12 17  1  0  0  0  0
 13 14  1  0  0  0  0
 13 32  1  0  0  0  0
 14 15  2  0  0  0  0
 14 33  1  0  0  0  0
 15 16  1  0  0  0  0
 15 18  1  0  0  0  0
 16 17  2  0  0  0  0
 16 34  1  0  0  0  0
 17 35  1  0  0  0  0
 18 19  1  0  0  0  0
 18 20  1  0  0  0  0
 19 36  1  0  0  0  0
 19 37  1  0  0  0  0
 19 38  1  0  0  0  0
 20 39  1  0  0  0  0
 20 40  1  0  0  0  0
 20 41  1  0  0  0  0
M  END
$$$$

 OpenBabel12201709243D

 32 34  0  0  0  0  0  0  0  0999 V2000
    1.1020    0.1628    0.2101 N   0  0  0  0  0  0  0  0  0  0  0  0
    2.4888    0.0439    0.0013 C   0  0  0  0  0  0  0  0  0  0  0  0
    3.2405    1.2210    0.0218 C   0  0  0  0  0  0  0  0  0  0  0  0
    4.6312    1.1773    0.0178 C   0  0  0  0  0  0  0  0  0  0  0  0
    5.3105   -0.0447   -0.0076 C   0  0  0  0  0  0  0  0  0  0  0  0
    6.7031   -0.0080    0.1918 N   0  0  0  0  0  0  0  0  0  0  0  0
    4.5629   -1.2486    0.0136 C   0  0  0  0  0  0  0  0  0  0  0  0
    5.2553   -2.5643    0.0081 C   0  0  0  0  0  0  0  0  0  0  0  0
    6.4868   -2.6056    0.0011 O   0  0  0  0  0  0  0  0  0  0  0  0
    4.4761   -3.8311    0.0102 C   0  0  0  0  0  0  0  0  0  0  0  0
    5.1414   -5.0820    0.0321 C   0  0  0  0  0  0  0  0  0  0  0  0
    6.5266   -5.2134   -0.1762 N   0  0  0  0  0  0  0  0  0  0  0  0
    4.3809   -6.2552    0.0158 C   0  0  0  0  0  0  0  0  0  0  0  0
    2.9903   -6.2052    0.0165 C   0  0  0  0  0  0  0  0  0  0  0  0
    2.3197   -4.9801    0.0329 C   0  0  0  0  0  0  0  0  0  0  0  0
    0.9280   -5.0062   -0.1742 N   0  0  0  0  0  0  0  0  0  0  0  0
    3.0763   -3.7824    0.0109 C   0  0  0  0  0  0  0  0  0  0  0  0
    2.3873   -2.4677    0.0116 C   0  0  0  0  0  0  0  0  0  0  0  0
    1.1569   -2.4258    0.0080 O   0  0  0  0  0  0  0  0  0  0  0  0
    3.1632   -1.2027    0.0170 C   0  0  0  0  0  0  0  0  0  0  0  0
    0.6654    0.9712   -0.2180 H   0  0  0  0  0  0  0  0  0  0  0  0
    0.6046   -0.7129    0.0072 H   0  0  0  0  0  0  0  0  0  0  0  0
    2.7437    2.1866    0.0842 H   0  0  0  0  0  0  0  0  0  0  0  0
    5.1860    2.1111    0.0774 H   0  0  0  0  0  0  0  0  0  0  0  0
    7.1827    0.7795   -0.2290 H   0  0  0  0  0  0  0  0  0  0  0  0
    7.1495   -0.9085   -0.0192 H   0  0  0  0  0  0  0  0  0  0  0  0
    7.0352   -4.3450    0.0274 H   0  0  0  0  0  0  0  0  0  0  0  0
    6.9548   -6.0313    0.2425 H   0  0  0  0  0  0  0  0  0  0  0  0
    4.8709   -7.2247   -0.0416 H   0  0  0  0  0  0  0  0  0  0  0  0
    2.4292   -7.1352   -0.0406 H   0  0  0  0  0  0  0  0  0  0  0  0
    0.4377   -5.7814    0.2567 H   0  0  0  0  0  0  0  0  0  0  0  0
    0.4904   -4.0978    0.0230 H   0  0  0  0  0  0  0  0  0  0  0  0
  1  2  1  0  0  0  0
  1 21  1  0  0  0  0
  1 22  1  0  0  0  0
  2  3  2  0  0  0  0
  2 20  1  0  0  0  0
  3  4  1  0  0  0  0
  3 23  1  0  0  0  0
  4  5  2  0  0  0  0
  4 24  1  0  0  0  0
  5  6  1  0  0  0  0
  5  7  1  0  0  0  0
  6 25  1  0  0  0  0
  6 26  1  0  0  0  0
  7  8  1  0  0  0  0
  7 20  2  0  0  0  0
  8  9  2  0  0  0  0
  8 10  1  0  0  0  0
 10 11  2  0  0  0  0
 10 17  1  0  0  0  0
 11 12  1  0  0  0  0
 11 13  1  0  0  0  0
 12 27  1  0  0  0  0
 12 28  1  0  0  0  0
 13 14  2  0  0  0  0
 13 29  1  0  0  0  0
 14 15  1  0  0  0  0
 14 30  1  0  0  0  0
 15 16  1  0  0  0  0
 15 17  2  0  0  0  0
 16 31  1  0  0  0  0
 16 32  1  0  0  0  0
 17 18  1  0  0  0  0
 18 19  2  0  0  0  0
 18 20  1  0  0  0  0
M  END
$$$$

 OpenBabel12201709243D

 17 16  0  0  0  0  0  0  0  0999 V2000
    1.1163    0.0114    0.0837 C   0  0  0  0  0  0  0  0  0  0  0  0
    2.5574    0.1478   -0.0444 N   0  0  0  0  0  0  0  0  0  0  0  0
    3.2247    1.0291   -0.8722 C   0  0  0  0  0  0  0  0  0  0  0  0
    2.3703    2.0906   -1.8692 S   0  0  0  0  0  0  0  0  0  0  0  0
    4.6275    0.9636   -0.8107 N   0  0  0  0  0  0  0  0  0  0  0  0
    5.4134    0.0627    0.0355 C   0  0  0  0  0  0  0  0  0  0  0  0
    5.4848    1.8330   -1.6273 C   0  0  0  0  0  0  0  0  0  0  0  0
    0.9096   -0.7710    0.8186 H   0  0  0  0  0  0  0  0  0  0  0  0
    0.6855   -0.2732   -0.8799 H   0  0  0  0  0  0  0  0  0  0  0  0
    0.6855    0.9553    0.4281 H   0  0  0  0  0  0  0  0  0  0  0  0
    3.0791   -0.4755    0.5410 H   0  0  0  0  0  0  0  0  0  0  0  0
    4.8376   -0.6090    0.6664 H   0  0  0  0  0  0  0  0  0  0  0  0
    6.0497    0.6702    0.6874 H   0  0  0  0  0  0  0  0  0  0  0  0
    6.0497   -0.5498   -0.6116 H   0  0  0  0  0  0  0  0  0  0  0  0
    4.9473    2.5234   -2.2758 H   0  0  0  0  0  0  0  0  0  0  0  0
    6.1192    1.2008   -2.2571 H   0  0  0  0  0  0  0  0  0  0  0  0
    6.1192    2.4220   -0.9569 H   0  0  0  0  0  0  0  0  0  0  0  0
  1  2  1  0  0  0  0
  1  8  1  0  0  0  0
  1  9  1  0  0  0  0
  1 10  1  0  0  0  0
  2  3  1  0  0  0  0
  2 11  1  0  0  0  0
  3  4  2  0  0  0  0
  3  5  1  0  0  0  0
  5  6  1  0  0  0  0
  5  7  1  0  0  0  0
  6 12  1  0  0  0  0
  6 13  1  0  0  0  0
  6 14  1  0  0  0  0
  7 15  1  0  0  0  0
  7 16  1  0  0  0  0
  7 17  1  0  0  0  0
M  END
$$$$

 OpenBabel12201709243D

 43 43  0  0  0  0  0  0  0  0999 V2000
    1.0080    0.0453   -0.0281 C   0  0  0  0  0  0  0  0  0  0  0  0
    2.5368    0.0971   -0.0323 C   0  0  0  0  0  0  0  0  0  0  0  0
    3.0067    1.4908    0.3898 C   0  0  0  0  0  0  0  0  0  0  0  0
    3.0985   -1.0144    0.8730 C   0  0  0  0  0  0  0  0  0  0  0  0
    4.6267   -1.0682    0.8793 C   0  0  0  0  0  0  0  0  0  0  0  0
    5.1413   -2.2094    1.7495 C   0  0  0  0  0  0  0  0  0  0  0  0
    6.6703   -2.2267    1.7693 C   0  0  0  0  0  0  0  0  0  0  0  0
    7.1760   -3.2946    2.7282 C   0  0  0  0  0  0  0  0  0  0  0  0
    8.6035   -3.3508    2.8351 O   0  0  0  0  0  0  0  0  0  0  0  0
    9.1391   -2.3926    3.6444 C   0  0  0  0  0  0  0  0  0  0  0  0
    8.7769   -1.2240    3.6940 O   0  0  0  0  0  0  0  0  0  0  0  0
   10.0964   -3.0207    4.6346 C   0  0  0  0  0  0  0  0  0  0  0  0
   11.4163   -3.1518    4.1537 O   0  0  0  0  0  0  0  0  0  0  0  0
   12.3187   -3.7317    5.0121 C   0  0  0  0  0  0  0  0  0  0  0  0
   12.0044   -4.1817    6.3039 C   0  0  0  0  0  0  0  0  0  0  0  0
   12.9835   -4.7716    7.1098 C   0  0  0  0  0  0  0  0  0  0  0  0
   14.2841   -4.9101    6.6345 C   0  0  0  0  0  0  0  0  0  0  0  0
   15.4779   -5.6420    7.6298 Cl  0  0  0  0  0  0  0  0  0  0  0  0
   14.6184   -4.4620    5.3602 C   0  0  0  0  0  0  0  0  0  0  0  0
   13.6390   -3.8740    4.5549 C   0  0  0  0  0  0  0  0  0  0  0  0
   14.1057   -3.3283    2.9808 Cl  0  0  0  0  0  0  0  0  0  0  0  0
    0.5918    0.8056   -0.6972 H   0  0  0  0  0  0  0  0  0  0  0  0
    0.6079    0.2209    0.9763 H   0  0  0  0  0  0  0  0  0  0  0  0
    0.6510   -0.9296   -0.3702 H   0  0  0  0  0  0  0  0  0  0  0  0
    2.8796   -0.0831   -1.0590 H   0  0  0  0  0  0  0  0  0  0  0  0
    2.7629    1.6915    1.4385 H   0  0  0  0  0  0  0  0  0  0  0  0
    2.5309    2.2629   -0.2235 H   0  0  0  0  0  0  0  0  0  0  0  0
    4.0875    1.6039    0.2625 H   0  0  0  0  0  0  0  0  0  0  0  0
    2.7107   -1.9832    0.5308 H   0  0  0  0  0  0  0  0  0  0  0  0
    2.7345   -0.8763    1.8990 H   0  0  0  0  0  0  0  0  0  0  0  0
    5.0328   -0.1277    1.2670 H   0  0  0  0  0  0  0  0  0  0  0  0
    4.9980   -1.1885   -0.1457 H   0  0  0  0  0  0  0  0  0  0  0  0
    4.7648   -3.1702    1.3780 H   0  0  0  0  0  0  0  0  0  0  0  0
    4.7610   -2.0876    2.7728 H   0  0  0  0  0  0  0  0  0  0  0  0
    7.0373   -1.2386    2.0633 H   0  0  0  0  0  0  0  0  0  0  0  0
    7.0709   -2.4088    0.7668 H   0  0  0  0  0  0  0  0  0  0  0  0
    6.8523   -4.2821    2.3809 H   0  0  0  0  0  0  0  0  0  0  0  0
    6.7504   -3.1613    3.7308 H   0  0  0  0  0  0  0  0  0  0  0  0
    9.6773   -4.0008    4.9001 H   0  0  0  0  0  0  0  0  0  0  0  0
   10.0700   -2.3827    5.5276 H   0  0  0  0  0  0  0  0  0  0  0  0
   11.0065   -4.0975    6.7217 H   0  0  0  0  0  0  0  0  0  0  0  0
   12.7203   -5.1200    8.1045 H   0  0  0  0  0  0  0  0  0  0  0  0
   15.6361   -4.5657    4.9955 H   0  0  0  0  0  0  0  0  0  0  0  0
  1  2  1  0  0  0  0
  1 22  1  0  0  0  0
  1 23  1  0  0  0  0
  1 24  1  0  0  0  0
  2  3  1  0  0  0  0
  2  4  1  0  0  0  0
  2 25  1  0  0  0  0
  3 26  1  0  0  0  0
  3 27  1  0  0  0  0
  3 28  1  0  0  0  0
  4  5  1  0  0  0  0
  4 29  1  0  0  0  0
  4 30  1  0  0  0  0
  5  6  1  0  0  0  0
  5 31  1  0  0  0  0
  5 32  1  0  0  0  0
  6  7  1  0  0  0  0
  6 33  1  0  0  0  0
  6 34  1  0  0  0  0
  7  8  1  0  0  0  0
  7 35  1  0  0  0  0
  7 36  1  0  0  0  0
  8  9  1  0  0  0  0
  8 37  1  0  0  0  0
  8 38  1  0  0  0  0
  9 10  1  0  0  0  0
 10 11  2  0  0  0  0
 10 12  1  0  0  0  0
 12 13  1  0  0  0  0
 12 39  1  0  0  0  0
 12 40  1  0  0  0  0
 13 14  1  0  0  0  0
 14 15  2  0  0  0  0
 14 20  1  0  0  0  0
 15 16  1  0  0  0  0
 15 41  1  0  0  0  0
 16 17  2  0  0  0  0
 16 42  1  0  0  0  0
 17 18  1  0  0  0  0
 17 19  1  0  0  0  0
 19 20  2  0  0  0  0
 19 43  1  0  0  0  0
 20 21  1  0  0  0  0
M  END
$$$$

 OpenBabel12201709243D

 21 21  0  0  0  0  0  0  0  0999 V2000
    1.0823    0.1459    0.1603 C   0  0  0  0  0  0  0  0  0  0  0  0
    2.5730    0.0457   -0.0097 C   0  0  0  0  0  0  0  0  0  0  0  0
    3.3070    1.2417   -0.1006 C   0  0  0  0  0  0  0  0  0  0  0  0
    4.6955    1.2299   -0.2603 C   0  0  0  0  0  0  0  0  0  0  0  0
    5.3793    0.0162   -0.3481 C   0  0  0  0  0  0  0  0  0  0  0  0
    4.6758   -1.1883   -0.2660 C   0  0  0  0  0  0  0  0  0  0  0  0
    3.2778   -1.1736   -0.0898 C   0  0  0  0  0  0  0  0  0  0  0  0
    2.6242   -2.4650    0.0604 N   0  0  0  0  0  0  0  0  0  0  0  0
    3.2022   -3.3331    0.6823 O   0  0  0  0  0  0  0  0  0  0  0  0
    1.4149   -2.7599   -0.5421 O   0  0  0  0  0  0  0  0  0  0  0  0
    6.8172    0.0272   -0.5497 N   0  0  0  0  0  0  0  0  0  0  0  0
    7.3209    0.9701   -1.1250 O   0  0  0  0  0  0  0  0  0  0  0  0
    7.6337   -0.9931   -0.0838 O   0  0  0  0  0  0  0  0  0  0  0  0
    0.7758    1.1729    0.3982 H   0  0  0  0  0  0  0  0  0  0  0  0
    0.7357   -0.4924    0.9775 H   0  0  0  0  0  0  0  0  0  0  0  0
    0.5733   -0.1265   -0.7695 H   0  0  0  0  0  0  0  0  0  0  0  0
    2.8017    2.2049   -0.0380 H   0  0  0  0  0  0  0  0  0  0  0  0
    5.2363    2.1745   -0.3180 H   0  0  0  0  0  0  0  0  0  0  0  0
    5.1864   -2.1452   -0.3542 H   0  0  0  0  0  0  0  0  0  0  0  0
    1.3058   -2.0230   -1.1560 H   0  0  0  0  0  0  0  0  0  0  0  0
    7.0438   -1.4915    0.4953 H   0  0  0  0  0  0  0  0  0  0  0  0
  1  2  1  0  0  0  0
  1 14  1  0  0  0  0
  1 15  1  0  0  0  0
  1 16  1  0  0  0  0
  2  3  2  0  0  0  0
  2  7  1  0  0  0  0
  3  4  1  0  0  0  0
  3 17  1  0  0  0  0
  4  5  2  0  0  0  0
  4 18  1  0  0  0  0
  5  6  1  0  0  0  0
  5 11  1  0  0  0  0
  6  7  2  0  0  0  0
  6 19  1  0  0  0  0
  7  8  1  0  0  0  0
  8  9  2  0  0  0  0
  8 10  1  0  0  0  0
 10 20  1  0  0  0  0
 11 12  2  0  0  0  0
 11 13  1  0  0  0  0
 13 21  1  0  0  0  0
M  END
$$$$

 OpenBabel12201709243D

 24 25  0  0  0  0  0  0  0  0999 V2000
    1.5105   -1.7500    0.6590 C   0  0  0  0  0  0  0  0  0  0  0  0
    3.0137   -1.6491    0.6851 C   0  0  0  0  0  0  0  0  0  0  0  0
    3.7115   -2.6373    0.4900 O   0  0  0  0  0  0  0  0  0  0  0  0
    3.4475   -0.3640    0.9314 N   0  0  0  0  0  0  0  0  0  0  0  0
    4.7817   -0.0757    1.0389 C   0  0  0  0  0  0  0  0  0  0  0  0
    5.8144   -0.8804    1.0551 N   0  0  0  0  0  0  0  0  0  0  0  0
    7.0043   -0.1860    1.1327 N   0  0  0  0  0  0  0  0  0  0  0  0
    6.8172    1.1178    1.1623 C   0  0  0  0  0  0  0  0  0  0  0  0
    5.1636    1.5863    1.1677 S   0  0  0  0  0  0  0  0  0  0  0  0
    7.9137    2.0451    1.1550 C   0  0  0  0  0  0  0  0  0  0  0  0
    9.2629    1.7389    1.0652 C   0  0  0  0  0  0  0  0  0  0  0  0
    9.9770    2.9573    1.0573 C   0  0  0  0  0  0  0  0  0  0  0  0
    9.0398    3.9661    1.1495 C   0  0  0  0  0  0  0  0  0  0  0  0
    7.7828    3.4145    1.2110 O   0  0  0  0  0  0  0  0  0  0  0  0
    9.3023    5.3509    1.1753 N   0  0  0  0  0  0  0  0  0  0  0  0
   10.4482    5.7496    1.1110 O   0  0  0  0  0  0  0  0  0  0  0  0
    8.2546    6.2493    1.2685 O   0  0  0  0  0  0  0  0  0  0  0  0
    1.2181   -2.7858    0.4605 H   0  0  0  0  0  0  0  0  0  0  0  0
    1.1038   -1.1135   -0.1315 H   0  0  0  0  0  0  0  0  0  0  0  0
    1.1020   -1.4522    1.6283 H   0  0  0  0  0  0  0  0  0  0  0  0
    2.7959    0.4052    0.9763 H   0  0  0  0  0  0  0  0  0  0  0  0
    9.6733    0.7385    0.9992 H   0  0  0  0  0  0  0  0  0  0  0  0
   11.0490    3.0936    0.9883 H   0  0  0  0  0  0  0  0  0  0  0  0
    7.4922    5.6506    1.3008 H   0  0  0  0  0  0  0  0  0  0  0  0
  1  2  1  0  0  0  0
  1 18  1  0  0  0  0
  1 19  1  0  0  0  0
  1 20  1  0  0  0  0
  2  3  2  0  0  0  0
  2  4  1  0  0  0  0
  4  5  1  0  0  0  0
  4 21  1  0  0  0  0
  5  6  2  0  0  0  0
  5  9  1  0  0  0  0
  6  7  1  0  0  0  0
  7  8  2  0  0  0  0
  8  9  1  0  0  0  0
  8 10  1  0  0  0  0
 10 11  2  0  0  0  0
 10 14  1  0  0  0  0
 11 12  1  0  0  0  0
 11 22  1  0  0  0  0
 12 13  2  0  0  0  0
 12 23  1  0  0  0  0
 13 14  1  0  0  0  0
 13 15  1  0  0  0  0
 15 16  2  0  0  0  0
 15 17  1  0  0  0  0
 17 24  1  0  0  0  0
M  END
$$$$

 OpenBabel12201709243D

 12 11  0  0  0  0  0  0  0  0999 V2000
    1.0391    0.0061   -0.1929 C   0  0  0  0  0  0  0  0  0  0  0  0
    2.5014    0.0040   -0.1369 N   0  0  0  0  0  0  0  0  0  0  0  0
    3.1076   -0.0407    1.0556 N   0  0  0  0  0  0  0  0  0  0  0  0
    2.4373   -0.0899    2.3706 C   0  0  0  0  0  0  0  0  0  0  0  0
    4.4816   -0.0404    1.0474 O   0  0  0  0  0  0  0  0  0  0  0  0
    0.7267    0.0454   -1.2412 H   0  0  0  0  0  0  0  0  0  0  0  0
    0.6202    0.8856    0.3070 H   0  0  0  0  0  0  0  0  0  0  0  0
    0.6202   -0.9083    0.2398 H   0  0  0  0  0  0  0  0  0  0  0  0
    1.3520   -0.0862    2.2701 H   0  0  0  0  0  0  0  0  0  0  0  0
    2.7584    0.7851    2.9411 H   0  0  0  0  0  0  0  0  0  0  0  0
    2.7584   -1.0052    2.8741 H   0  0  0  0  0  0  0  0  0  0  0  0
    4.6539   -0.0045    0.0890 H   0  0  0  0  0  0  0  0  0  0  0  0
  1  2  1  0  0  0  0
  1  6  1  0  0  0  0
  1  7  1  0  0  0  0
  1  8  1  0  0  0  0
  2  3  2  3  0  0  0
  3  4  1  0  0  0  0
  3  5  1  0  0  0  0
  4  9  1  0  0  0  0
  4 10  1  0  0  0  0
  4 11  1  0  0  0  0
  5 12  1  0  0  0  0
M  END
$$$$

 OpenBabel12201709243D

 80 85  0  0  0  0  0  0  0  0999 V2000
    0.9066   -0.1320   -0.6386 N   0  0  0  0  0  0  0  0  0  0  0  0
    2.3124   -0.0080   -0.4096 C   0  0  0  0  0  0  0  0  0  0  0  0
    3.0401   -1.2066   -0.4188 C   0  0  0  0  0  0  0  0  0  0  0  0
    4.4122   -1.2291   -0.2104 C   0  0  0  0  0  0  0  0  0  0  0  0
    5.0972   -0.0447    0.0157 C   0  0  0  0  0  0  0  0  0  0  0  0
    4.4153    1.1779    0.0349 C   0  0  0  0  0  0  0  0  0  0  0  0
    5.1548    2.3420    0.2625 C   0  0  0  0  0  0  0  0  0  0  0  0
    4.5495    3.5930    0.2878 C   0  0  0  0  0  0  0  0  0  0  0  0
    3.1485    3.6821    0.0799 C   0  0  0  0  0  0  0  0  0  0  0  0
    2.4435    4.9126    0.0640 N   0  0  0  0  0  0  0  0  0  0  0  0
    2.9752    6.0088    0.2970 N   0  0  0  0  0  0  0  0  0  0  0  0
    2.2664    7.2148    0.1476 C   0  0  0  0  0  0  0  0  0  0  0  0
    0.9114    7.2324   -0.1980 C   0  0  0  0  0  0  0  0  0  0  0  0
    0.2649    8.4413   -0.4181 C   0  0  0  0  0  0  0  0  0  0  0  0
    0.9572    9.6715   -0.3054 C   0  0  0  0  0  0  0  0  0  0  0  0
    2.3185    9.6225    0.0792 C   0  0  0  0  0  0  0  0  0  0  0  0
    2.9577    8.4092    0.3003 C   0  0  0  0  0  0  0  0  0  0  0  0
    0.2898   10.9740   -0.6445 C   0  0  0  0  0  0  0  0  0  0  0  0
   -1.0511   11.0106   -1.0945 C   0  0  0  0  0  0  0  0  0  0  0  0
   -1.6442   12.2014   -1.4832 C   0  0  0  0  0  0  0  0  0  0  0  0
   -0.9221   13.3949   -1.4311 C   0  0  0  0  0  0  0  0  0  0  0  0
   -1.4944   14.6111   -1.8407 N   0  0  0  0  0  0  0  0  0  0  0  0
   -2.6220   14.6589   -2.3552 N   0  0  0  0  0  0  0  0  0  0  0  0
   -3.2679   15.8645   -2.7293 C   0  0  0  0  0  0  0  0  0  0  0  0
   -2.6945   17.1699   -2.5765 C   0  0  0  0  0  0  0  0  0  0  0  0
   -1.4526   17.3522   -2.0822 O   0  0  0  0  0  0  0  0  0  0  0  0
   -3.4479   18.3256   -2.9431 C   0  0  0  0  0  0  0  0  0  0  0  0
   -2.9738   19.6846   -2.8199 C   0  0  0  0  0  0  0  0  0  0  0  0
   -1.6850   20.0746   -2.3367 N   0  0  0  0  0  0  0  0  0  0  0  0
   -3.8235   20.7369   -3.1932 C   0  0  0  0  0  0  0  0  0  0  0  0
   -5.1022   20.5060   -3.6813 C   0  0  0  0  0  0  0  0  0  0  0  0
   -5.5687   19.2086   -3.8173 C   0  0  0  0  0  0  0  0  0  0  0  0
   -4.7650   18.1234   -3.4579 C   0  0  0  0  0  0  0  0  0  0  0  0
   -5.2927   16.8407   -3.6118 C   0  0  0  0  0  0  0  0  0  0  0  0
   -4.5597   15.7236   -3.2553 C   0  0  0  0  0  0  0  0  0  0  0  0
   -5.3162   14.0982   -3.4774 S   0  0  0  0  0  0  0  0  0  0  0  0
   -4.5417   13.2011   -4.4554 O   0  0  0  0  0  0  0  0  0  0  0  0
   -5.2458   13.2706   -2.1852 O   0  0  0  0  0  0  0  0  0  0  0  0
   -6.9640   13.9933   -3.9526 O   0  0  0  0  0  0  0  0  0  0  0  0
   -7.0681   14.8438   -5.8006 Na  0  0  0  0  0  0  0  0  0  0  0  0
   -6.1573   21.8819   -4.1188 S   0  0  0  0  0  0  0  0  0  0  0  0
   -5.3354   23.0728   -4.6340 O   0  0  0  0  0  0  0  0  0  0  0  0
   -7.0456   21.5851   -5.3359 O   0  0  0  0  0  0  0  0  0  0  0  0
   -7.1951   22.5376   -2.9204 O   0  0  0  0  0  0  0  0  0  0  0  0
   -8.3954   20.9782   -2.3948 Na  0  0  0  0  0  0  0  0  0  0  0  0
    0.3891   13.3940   -0.9694 C   0  0  0  0  0  0  0  0  0  0  0  0
    0.9922   12.2029   -0.5812 C   0  0  0  0  0  0  0  0  0  0  0  0
    2.3871    2.5139   -0.1528 C   0  0  0  0  0  0  0  0  0  0  0  0
    1.0582    2.6407   -0.3565 O   0  0  0  0  0  0  0  0  0  0  0  0
    3.0061    1.2321   -0.1780 C   0  0  0  0  0  0  0  0  0  0  0  0
    5.6308    5.0208    0.5775 S   0  0  0  0  0  0  0  0  0  0  0  0
    7.1125    4.6395    0.7138 O   0  0  0  0  0  0  0  0  0  0  0  0
    5.6853    5.9444   -0.6498 O   0  0  0  0  0  0  0  0  0  0  0  0
    5.3147    6.0613    1.9067 O   0  0  0  0  0  0  0  0  0  0  0  0
    5.4921    4.8584    3.5354 Na  0  0  0  0  0  0  0  0  0  0  0  0
    5.2857   -2.7901   -0.2523 S   0  0  0  0  0  0  0  0  0  0  0  0
    6.4989   -2.7878    0.6896 O   0  0  0  0  0  0  0  0  0  0  0  0
    4.4553   -3.9409    0.3354 O   0  0  0  0  0  0  0  0  0  0  0  0
    5.8796   -3.3614   -1.7575 O   0  0  0  0  0  0  0  0  0  0  0  0
    4.2138   -3.5062   -2.9219 Na  0  0  0  0  0  0  0  0  0  0  0  0
    0.4928   -1.0627   -0.7987 H   0  0  0  0  0  0  0  0  0  0  0  0
    0.2352    0.6388   -0.6618 H   0  0  0  0  0  0  0  0  0  0  0  0
    2.5267   -2.1445   -0.5961 H   0  0  0  0  0  0  0  0  0  0  0  0
    6.1695   -0.0760    0.1736 H   0  0  0  0  0  0  0  0  0  0  0  0
    6.2248    2.2739    0.4184 H   0  0  0  0  0  0  0  0  0  0  0  0
    0.3535    6.3123   -0.3234 H   0  0  0  0  0  0  0  0  0  0  0  0
   -0.7694    8.3658   -0.7019 H   0  0  0  0  0  0  0  0  0  0  0  0
    2.9335   10.4969    0.1914 H   0  0  0  0  0  0  0  0  0  0  0  0
    4.0081    8.3989    0.5633 H   0  0  0  0  0  0  0  0  0  0  0  0
   -1.6741   10.1397   -1.1809 H   0  0  0  0  0  0  0  0  0  0  0  0
   -2.6678   12.1844   -1.8348 H   0  0  0  0  0  0  0  0  0  0  0  0
   -0.7878   16.7201   -1.8018 H   0  0  0  0  0  0  0  0  0  0  0  0
   -0.9300   19.4537   -2.0385 H   0  0  0  0  0  0  0  0  0  0  0  0
   -1.4437   21.0753   -2.2844 H   0  0  0  0  0  0  0  0  0  0  0  0
   -3.4815   21.7590   -3.0967 H   0  0  0  0  0  0  0  0  0  0  0  0
   -6.5704   19.0462   -4.1989 H   0  0  0  0  0  0  0  0  0  0  0  0
   -6.2926   16.7035   -4.0075 H   0  0  0  0  0  0  0  0  0  0  0  0
    0.9530   14.3186   -0.9249 H   0  0  0  0  0  0  0  0  0  0  0  0
    2.0136   12.2842   -0.2547 H   0  0  0  0  0  0  0  0  0  0  0  0
    0.5701    3.4758   -0.3597 H   0  0  0  0  0  0  0  0  0  0  0  0
  1  2  1  0  0  0  0
  1 61  1  0  0  0  0
  1 62  1  0  0  0  0
  2  3  2  0  0  0  0
  2 50  1  0  0  0  0
  3  4  1  0  0  0  0
  3 63  1  0  0  0  0
  4  5  2  0  0  0  0
  4 56  1  0  0  0  0
  5  6  1  0  0  0  0
  5 64  1  0  0  0  0
  6  7  2  0  0  0  0
  6 50  1  0  0  0  0
  7  8  1  0  0  0  0
  7 65  1  0  0  0  0
  8  9  2  0  0  0  0
  8 51  1  0  0  0  0
  9 10  1  0  0  0  0
  9 48  1  0  0  0  0
 10 11  2  3  0  0  0
 11 12  1  0  0  0  0
 12 13  2  0  0  0  0
 12 17  1  0  0  0  0
 13 14  1  0  0  0  0
 13 66  1  0  0  0  0
 14 15  2  0  0  0  0
 14 67  1  0  0  0  0
 15 16  1  0  0  0  0
 15 18  1  0  0  0  0
 16 17  2  0  0  0  0
 16 68  1  0  0  0  0
 17 69  1  0  0  0  0
 18 19  2  0  0  0  0
 18 47  1  0  0  0  0
 19 20  1  0  0  0  0
 19 70  1  0  0  0  0
 20 21  2  0  0  0  0
 20 71  1  0  0  0  0
 21 22  1  0  0  0  0
 21 46  1  0  0  0  0
 22 23  2  3  0  0  0
 23 24  1  0  0  0  0
 24 25  2  0  0  0  0
 24 35  1  0  0  0  0
 25 26  1  0  0  0  0
 25 27  1  0  0  0  0
 26 72  1  0  0  0  0
 27 28  2  0  0  0  0
 27 33  1  0  0  0  0
 28 29  1  0  0  0  0
 28 30  1  0  0  0  0
 29 73  1  0  0  0  0
 29 74  1  0  0  0  0
 30 31  2  0  0  0  0
 30 75  1  0  0  0  0
 31 32  1  0  0  0  0
 31 41  1  0  0  0  0
 32 33  2  0  0  0  0
 32 76  1  0  0  0  0
 33 34  1  0  0  0  0
 34 35  2  0  0  0  0
 34 77  1  0  0  0  0
 35 36  1  0  0  0  0
 36 37  2  0  0  0  0
 36 38  2  0  0  0  0
 36 39  1  0  0  0  0
 39 40  1  0  0  0  0
 41 42  2  0  0  0  0
 41 43  2  0  0  0  0
 41 44  1  0  0  0  0
 44 45  1  0  0  0  0
 46 47  2  0  0  0  0
 46 78  1  0  0  0  0
 47 79  1  0  0  0  0
 48 49  1  0  0  0  0
 48 50  2  0  0  0  0
 49 80  1  0  0  0  0
 51 52  2  0  0  0  0
 51 53  2  0  0  0  0
 51 54  1  0  0  0  0
 54 55  1  0  0  0  0
 56 57  2  0  0  0  0
 56 58  2  0  0  0  0
 56 59  1  0  0  0  0
 59 60  1  0  0  0  0
M  END
$$$$

 OpenBabel12201709243D

 28 29  0  0  0  0  0  0  0  0999 V2000
    1.1554    0.5399   -0.6354 C   0  0  0  0  0  0  0  0  0  0  0  0
    2.4322    0.0688   -0.0900 N   0  0  0  0  0  0  0  0  0  0  0  0
    2.2747   -0.2799    1.3281 C   0  0  0  0  0  0  0  0  0  0  0  0
    2.8212   -1.0823   -0.8210 N   0  0  0  0  0  0  0  0  0  0  0  0
    4.1667   -1.2793   -0.9315 C   0  0  0  0  0  0  0  0  0  0  0  0
    5.1276   -0.3760   -0.9408 N   0  0  0  0  0  0  0  0  0  0  0  0
    6.3606   -0.9874   -1.1031 C   0  0  0  0  0  0  0  0  0  0  0  0
    6.3351   -2.3613   -1.1859 C   0  0  0  0  0  0  0  0  0  0  0  0
    4.7217   -2.9134   -1.1056 S   0  0  0  0  0  0  0  0  0  0  0  0
    7.6402   -0.2257   -1.1996 C   0  0  0  0  0  0  0  0  0  0  0  0
    7.7788    1.1464   -1.1676 C   0  0  0  0  0  0  0  0  0  0  0  0
    9.1621    1.4226   -1.3104 C   0  0  0  0  0  0  0  0  0  0  0  0
    9.8028    0.2029   -1.4185 C   0  0  0  0  0  0  0  0  0  0  0  0
    8.8733   -0.8034   -1.3510 O   0  0  0  0  0  0  0  0  0  0  0  0
   11.1861   -0.0174   -1.5778 N   0  0  0  0  0  0  0  0  0  0  0  0
   11.9482    0.9250   -1.6308 O   0  0  0  0  0  0  0  0  0  0  0  0
   11.6665   -1.3137   -1.6730 O   0  0  0  0  0  0  0  0  0  0  0  0
    0.8150    1.4355   -0.1034 H   0  0  0  0  0  0  0  0  0  0  0  0
    0.3679   -0.2208   -0.5628 H   0  0  0  0  0  0  0  0  0  0  0  0
    1.2652    0.8171   -1.6899 H   0  0  0  0  0  0  0  0  0  0  0  0
    1.9248    0.5865    1.9013 H   0  0  0  0  0  0  0  0  0  0  0  0
    3.2352   -0.5803    1.7619 H   0  0  0  0  0  0  0  0  0  0  0  0
    1.5604   -1.0995    1.4755 H   0  0  0  0  0  0  0  0  0  0  0  0
    2.2563   -1.9207   -0.7051 H   0  0  0  0  0  0  0  0  0  0  0  0
    7.1609   -3.0449   -1.3070 H   0  0  0  0  0  0  0  0  0  0  0  0
    6.9703    1.8589   -1.0619 H   0  0  0  0  0  0  0  0  0  0  0  0
    9.6438    2.3911   -1.3358 H   0  0  0  0  0  0  0  0  0  0  0  0
   10.8453   -1.8248   -1.6016 H   0  0  0  0  0  0  0  0  0  0  0  0
  1  2  1  0  0  0  0
  1 18  1  0  0  0  0
  1 19  1  0  0  0  0
  1 20  1  0  0  0  0
  2  3  1  0  0  0  0
  2  4  1  0  0  0  0
  3 21  1  0  0  0  0
  3 22  1  0  0  0  0
  3 23  1  0  0  0  0
  4  5  1  0  0  0  0
  4 24  1  0  0  0  0
  5  6  2  0  0  0  0
  5  9  1  0  0  0  0
  6  7  1  0  0  0  0
  7  8  2  0  0  0  0
  7 10  1  0  0  0  0
  8  9  1  0  0  0  0
  8 25  1  0  0  0  0
 10 11  2  0  0  0  0
 10 14  1  0  0  0  0
 11 12  1  0  0  0  0
 11 26  1  0  0  0  0
 12 13  2  0  0  0  0
 12 27  1  0  0  0  0
 13 14  1  0  0  0  0
 13 15  1  0  0  0  0
 15 16  2  0  0  0  0
 15 17  1  0  0  0  0
 17 28  1  0  0  0  0
M  END
$$$$

 OpenBabel12201709243D

 23 25  0  0  0  0  0  0  0  0999 V2000
    1.1349    0.1302   -0.2363 N   0  0  0  0  0  0  0  0  0  0  0  0
    2.5265    0.0807   -0.1225 C   0  0  0  0  0  0  0  0  0  0  0  0
    3.1654   -1.1572   -0.1200 C   0  0  0  0  0  0  0  0  0  0  0  0
    4.5589   -1.2209   -0.0622 C   0  0  0  0  0  0  0  0  0  0  0  0
    5.2592   -0.0059   -0.0315 C   0  0  0  0  0  0  0  0  0  0  0  0
    6.6325    0.3839   -0.0151 C   0  0  0  0  0  0  0  0  0  0  0  0
    7.8517   -0.3244   -0.0181 C   0  0  0  0  0  0  0  0  0  0  0  0
    9.0583    0.3842   -0.0256 C   0  0  0  0  0  0  0  0  0  0  0  0
    9.0637    1.7773   -0.0254 C   0  0  0  0  0  0  0  0  0  0  0  0
    7.8691    2.5036   -0.0153 C   0  0  0  0  0  0  0  0  0  0  0  0
    6.6708    1.7808   -0.0113 C   0  0  0  0  0  0  0  0  0  0  0  0
    5.3642    2.2190   -0.0132 N   0  0  0  0  0  0  0  0  0  0  0  0
    5.0653    3.1816   -0.0178 H   0  0  0  0  0  0  0  0  0  0  0  0
    4.5029    1.1588   -0.0395 C   0  0  0  0  0  0  0  0  0  0  0  0
    3.1621    1.2662   -0.0783 N   0  0  0  0  0  0  0  0  0  0  0  0
    0.6786   -0.4536    0.4534 H   0  0  0  0  0  0  0  0  0  0  0  0
    0.8631    1.1065   -0.1587 H   0  0  0  0  0  0  0  0  0  0  0  0
    2.5852   -2.0723   -0.1796 H   0  0  0  0  0  0  0  0  0  0  0  0
    5.0774   -2.1729   -0.0658 H   0  0  0  0  0  0  0  0  0  0  0  0
    7.8572   -1.4102   -0.0243 H   0  0  0  0  0  0  0  0  0  0  0  0
    9.9996   -0.1605   -0.0360 H   0  0  0  0  0  0  0  0  0  0  0  0
   10.0128    2.3087   -0.0364 H   0  0  0  0  0  0  0  0  0  0  0  0
    7.8794    3.5899   -0.0183 H   0  0  0  0  0  0  0  0  0  0  0  0
  1  2  1  0  0  0  0
  1 16  1  0  0  0  0
  1 17  1  0  0  0  0
  2  3  2  0  0  0  0
  2 15  1  0  0  0  0
  3  4  1  0  0  0  0
  3 18  1  0  0  0  0
  4  5  2  0  0  0  0
  4 19  1  0  0  0  0
  5  6  1  0  0  0  0
  5 14  1  0  0  0  0
  6  7  2  0  0  0  0
  6 11  1  0  0  0  0
  7  8  1  0  0  0  0
  7 20  1  0  0  0  0
  8  9  2  0  0  0  0
  8 21  1  0  0  0  0
  9 10  1  0  0  0  0
  9 22  1  0  0  0  0
 10 11  2  0  0  0  0
 10 23  1  0  0  0  0
 11 12  1  0  0  0  0
 12 13  1  0  0  0  0
 12 14  1  0  0  0  0
 14 15  2  0  0  0  0
M  END
$$$$

 OpenBabel12201709243D

 22 24  0  0  0  0  0  0  0  0999 V2000
    0.0021    1.4439   -0.0022 O   0  0  0  0  0  0  0  0  0  0  0  0
    1.1627    0.7122   -0.0018 C   0  0  0  0  0  0  0  0  0  0  0  0
    2.3669    1.4147    0.0005 C   0  0  0  0  0  0  0  0  0  0  0  0
    3.5758    0.7167    0.0016 C   0  0  0  0  0  0  0  0  0  0  0  0
    3.5774   -0.6799    0.0000 C   0  0  0  0  0  0  0  0  0  0  0  0
    2.3700   -1.3814   -0.0024 C   0  0  0  0  0  0  0  0  0  0  0  0
    1.1639   -0.6821   -0.0031 C   0  0  0  0  0  0  0  0  0  0  0  0
    0.0037   -1.4151   -0.0048 O   0  0  0  0  0  0  0  0  0  0  0  0
   -1.1573   -0.6833   -0.0029 C   0  0  0  0  0  0  0  0  0  0  0  0
   -2.3628   -1.3840   -0.0021 C   0  0  0  0  0  0  0  0  0  0  0  0
   -3.5709   -0.6838    0.0000 C   0  0  0  0  0  0  0  0  0  0  0  0
   -3.5709    0.7127    0.0011 C   0  0  0  0  0  0  0  0  0  0  0  0
   -2.3628    1.4121    0.0000 C   0  0  0  0  0  0  0  0  0  0  0  0
   -1.1578    0.7109   -0.0019 C   0  0  0  0  0  0  0  0  0  0  0  0
    2.3633    2.5009    0.0017 H   0  0  0  0  0  0  0  0  0  0  0  0
    4.5166    1.2616    0.0036 H   0  0  0  0  0  0  0  0  0  0  0  0
    4.5198   -1.2219    0.0008 H   0  0  0  0  0  0  0  0  0  0  0  0
    2.3700   -2.4676   -0.0036 H   0  0  0  0  0  0  0  0  0  0  0  0
   -2.3616   -2.4702   -0.0029 H   0  0  0  0  0  0  0  0  0  0  0  0
   -4.5128   -1.2269    0.0009 H   0  0  0  0  0  0  0  0  0  0  0  0
   -4.5123    1.2566    0.0027 H   0  0  0  0  0  0  0  0  0  0  0  0
   -2.3604    2.4983    0.0009 H   0  0  0  0  0  0  0  0  0  0  0  0
  1  2  1  0  0  0  0
  1 14  1  0  0  0  0
  2  3  2  0  0  0  0
  2  7  1  0  0  0  0
  3  4  1  0  0  0  0
  3 15  1  0  0  0  0
  4  5  2  0  0  0  0
  4 16  1  0  0  0  0
  5  6  1  0  0  0  0
  5 17  1  0  0  0  0
  6  7  2  0  0  0  0
  6 18  1  0  0  0  0
  7  8  1  0  0  0  0
  8  9  1  0  0  0  0
  9 10  2  0  0  0  0
  9 14  1  0  0  0  0
 10 11  1  0  0  0  0
 10 19  1  0  0  0  0
 11 12  2  0  0  0  0
 11 20  1  0  0  0  0
 12 13  1  0  0  0  0
 12 21  1  0  0  0  0
 13 14  2  0  0  0  0
 13 22  1  0  0  0  0
M  END
$$$$

 OpenBabel12201709243D

 16 16  0  0  0  0  0  0  0  0999 V2000
    2.5495    0.5797   -0.5461 O   0  0  0  0  0  0  0  0  0  0  0  0
    2.3678   -0.6376   -0.4412 N   0  0  0  0  0  0  0  0  0  0  0  0
    3.0384   -1.1243    0.5790 N   0  0  0  0  0  0  0  0  0  0  0  0
    2.5423   -2.4340    1.0337 C   0  0  0  0  0  0  0  0  0  0  0  0
    2.8655   -3.6228    0.1199 C   0  0  0  0  0  0  0  0  0  0  0  0
    4.6581   -3.8608   -0.0749 S   0  0  0  0  0  0  0  0  0  0  0  0
    5.0762   -2.1552   -0.5530 C   0  0  0  0  0  0  0  0  0  0  0  0
    4.5098   -1.1248    0.4321 C   0  0  0  0  0  0  0  0  0  0  0  0
    1.4524   -2.3856    1.1702 H   0  0  0  0  0  0  0  0  0  0  0  0
    2.9400   -2.6305    2.0390 H   0  0  0  0  0  0  0  0  0  0  0  0
    2.4167   -3.4963   -0.8711 H   0  0  0  0  0  0  0  0  0  0  0  0
    2.4482   -4.5391    0.5500 H   0  0  0  0  0  0  0  0  0  0  0  0
    4.7117   -1.9751   -1.5697 H   0  0  0  0  0  0  0  0  0  0  0  0
    6.1677   -2.0738   -0.5803 H   0  0  0  0  0  0  0  0  0  0  0  0
    4.8619   -0.1282    0.1316 H   0  0  0  0  0  0  0  0  0  0  0  0
    4.9569   -1.2872    1.4226 H   0  0  0  0  0  0  0  0  0  0  0  0
  1  2  2  0  0  0  0
  2  3  1  0  0  0  0
  3  4  1  0  0  0  0
  3  8  1  0  0  0  0
  4  5  1  0  0  0  0
  4  9  1  0  0  0  0
  4 10  1  0  0  0  0
  5  6  1  0  0  0  0
  5 11  1  0  0  0  0
  5 12  1  0  0  0  0
  6  7  1  0  0  0  0
  7  8  1  0  0  0  0
  7 13  1  0  0  0  0
  7 14  1  0  0  0  0
  8 15  1  0  0  0  0
  8 16  1  0  0  0  0
M  END
$$$$

 OpenBabel12201709243D

  4  3  0  0  0  0  0  0  0  0999 V2000
    1.2760   -0.0860   -0.1075 Na  0  0  0  0  0  0  0  0  0  0  0  0
    3.3975   -0.0741   -0.1033 N   0  0  0  0  0  0  0  0  0  0  0  0
    4.0131   -1.0635   -0.4550 N   0  0  0  0  0  0  0  0  0  0  0  0
    4.6289   -2.0528   -0.8067 N   0  5  0  0  0  0  0  0  0  0  0  0
  1  2  1  0  0  0  0
  2  3  2  0  0  0  0
  3  4  2  0  0  0  0
M  END
$$$$

 OpenBabel12201709243D

 12 11  0  0  1  0  0  0  0  0999 V2000
    2.6408   -0.9547   -0.0200 F   0  0  0  0  0  0  0  0  0  0  0  0
    2.2850    0.3117   -0.3253 C   0  0  0  0  0  0  0  0  0  0  0  0
    0.9345    0.3668   -0.2309 F   0  0  0  0  0  0  0  0  0  0  0  0
    2.8046    1.1879    0.6522 O   0  0  0  0  0  0  0  0  0  0  0  0
    4.1866    0.9386    0.9287 C   0  0  3  0  0  0  0  0  0  0  0  0
    5.1714    1.5184   -0.4539 Cl  0  0  0  0  0  0  0  0  0  0  0  0
    4.6296    1.5872    2.2622 C   0  0  0  0  0  0  0  0  0  0  0  0
    3.5730    1.9740    3.0191 F   0  0  0  0  0  0  0  0  0  0  0  0
    5.3381    0.6994    3.0066 F   0  0  0  0  0  0  0  0  0  0  0  0
    5.4130    2.6782    2.0953 F   0  0  0  0  0  0  0  0  0  0  0  0
    2.5918    0.5706   -1.3403 H   0  0  0  0  0  0  0  0  0  0  0  0
    4.3705   -0.1376    1.0185 H   0  0  0  0  0  0  0  0  0  0  0  0
  1  2  1  0  0  0  0
  2  3  1  0  0  0  0
  2  4  1  0  0  0  0
  2 11  1  0  0  0  0
  4  5  1  0  0  0  0
  5  6  1  0  0  0  0
  5  7  1  0  0  0  0
  5 12  1  0  0  0  0
  7  8  1  0  0  0  0
  7  9  1  0  0  0  0
  7 10  1  0  0  0  0
M  END
$$$$

 OpenBabel12201709243D

 18 18  0  0  0  0  0  0  0  0999 V2000
    1.4682    0.6582    0.2200 Cl  0  0  0  0  0  0  0  0  0  0  0  0
    3.1297    0.2073    0.1012 C   0  0  0  0  0  0  0  0  0  0  0  0
    4.0867    1.2411    0.0950 C   0  0  0  0  0  0  0  0  0  0  0  0
    5.4451    0.9482   -0.0274 C   0  0  0  0  0  0  0  0  0  0  0  0
    5.8480   -0.3755   -0.1410 C   0  0  0  0  0  0  0  0  0  0  0  0
    4.8992   -1.4051   -0.1259 C   0  0  0  0  0  0  0  0  0  0  0  0
    3.5230   -1.1430    0.0067 C   0  0  0  0  0  0  0  0  0  0  0  0
    2.5939   -2.3183    0.0266 C   0  0  0  0  0  0  0  0  0  0  0  0
    2.0801   -2.9121   -1.0774 C   0  0  0  0  0  0  0  0  0  0  0  0
    2.3488   -2.2372   -2.4126 C   0  0  0  0  0  0  0  0  0  0  0  0
    2.5718   -1.6774   -3.5203 N   0  0  0  0  0  0  0  0  0  0  0  0
    1.2871   -4.2078   -1.0267 C   0  0  0  0  0  0  0  0  0  0  0  0
    0.6292   -5.2827   -0.9847 N   0  0  0  0  0  0  0  0  0  0  0  0
    3.7780    2.2831    0.1780 H   0  0  0  0  0  0  0  0  0  0  0  0
    6.1833    1.7531   -0.0246 H   0  0  0  0  0  0  0  0  0  0  0  0
    6.9064   -0.6091   -0.2373 H   0  0  0  0  0  0  0  0  0  0  0  0
    5.2596   -2.4338   -0.2105 H   0  0  0  0  0  0  0  0  0  0  0  0
    2.4093   -2.7189    1.0197 H   0  0  0  0  0  0  0  0  0  0  0  0
  1  2  1  0  0  0  0
  2  3  2  0  0  0  0
  2  7  1  0  0  0  0
  3  4  1  0  0  0  0
  3 14  1  0  0  0  0
  4  5  2  0  0  0  0
  4 15  1  0  0  0  0
  5  6  1  0  0  0  0
  5 16  1  0  0  0  0
  6  7  2  0  0  0  0
  6 17  1  0  0  0  0
  7  8  1  0  0  0  0
  8  9  2  0  0  0  0
  8 18  1  0  0  0  0
  9 10  1  0  0  0  0
  9 12  1  0  0  0  0
 10 11  3  0  0  0  0
 12 13  3  0  0  0  0
M  END
$$$$

 OpenBabel12201709243D

 15 16  0  0  0  0  0  0  0  0999 V2000
   -2.3652   -0.0421    0.0010 C   0  0  0  0  0  0  0  0  0  0  0  0
   -1.6443    1.1301    0.0006 C   0  0  0  0  0  0  0  0  0  0  0  0
   -0.2739    0.7584    0.0002 C   0  0  0  0  0  0  0  0  0  0  0  0
    0.9550    1.4417   -0.0002 C   0  0  0  0  0  0  0  0  0  0  0  0
    2.1412    0.6929   -0.0005 C   0  0  0  0  0  0  0  0  0  0  0  0
    2.1118   -0.7047   -0.0003 C   0  0  0  0  0  0  0  0  0  0  0  0
    0.8994   -1.4027    0.0002 C   0  0  0  0  0  0  0  0  0  0  0  0
   -0.2606   -0.6319    0.0004 C   0  0  0  0  0  0  0  0  0  0  0  0
   -1.5336   -1.1166    0.0009 O   0  0  0  0  0  0  0  0  0  0  0  0
   -3.4215   -0.2716    0.0013 H   0  0  0  0  0  0  0  0  0  0  0  0
   -2.0546    2.1295    0.0005 H   0  0  0  0  0  0  0  0  0  0  0  0
    0.9897    2.5268   -0.0004 H   0  0  0  0  0  0  0  0  0  0  0  0
    3.0988    1.2094   -0.0008 H   0  0  0  0  0  0  0  0  0  0  0  0
    3.0468   -1.2610   -0.0005 H   0  0  0  0  0  0  0  0  0  0  0  0
    0.8568   -2.4847    0.0004 H   0  0  0  0  0  0  0  0  0  0  0  0
  1  2  2  0  0  0  0
  1  9  1  0  0  0  0
  1 10  1  0  0  0  0
  2  3  1  0  0  0  0
  2 11  1  0  0  0  0
  3  4  2  0  0  0  0
  3  8  1  0  0  0  0
  4  5  1  0  0  0  0
  4 12  1  0  0  0  0
  5  6  2  0  0  0  0
  5 13  1  0  0  0  0
  6  7  1  0  0  0  0
  6 14  1  0  0  0  0
  7  8  2  0  0  0  0
  7 15  1  0  0  0  0
  8  9  1  0  0  0  0
M  END
$$$$

 OpenBabel12201709243D

 39 41  0  0  0  0  0  0  0  0999 V2000
    1.0460    0.1631    0.1443 O   0  0  0  0  0  0  0  0  0  0  0  0
    2.3946    0.1045    0.1041 C   0  0  0  0  0  0  0  0  0  0  0  0
    3.1296    1.2964    0.0638 C   0  0  0  0  0  0  0  0  0  0  0  0
    4.5206    1.2724    0.0104 C   0  0  0  0  0  0  0  0  0  0  0  0
    5.2060    0.0528   -0.0078 C   0  0  0  0  0  0  0  0  0  0  0  0
    6.6075    0.0337   -0.0743 C   0  0  0  0  0  0  0  0  0  0  0  0
    7.2965   -1.1823   -0.1020 C   0  0  0  0  0  0  0  0  0  0  0  0
    6.5880   -2.3868   -0.0628 C   0  0  0  0  0  0  0  0  0  0  0  0
    5.1943   -2.3831    0.0065 C   0  0  0  0  0  0  0  0  0  0  0  0
    4.4812   -1.1659    0.0340 C   0  0  0  0  0  0  0  0  0  0  0  0
    3.0675   -1.1442    0.0949 C   0  0  0  0  0  0  0  0  0  0  0  0
    2.3594   -2.3824    0.1265 N   0  0  0  0  0  0  0  0  0  0  0  0
    1.1173   -2.4437    0.2105 N   0  0  0  0  0  0  0  0  0  0  0  0
    0.4172   -3.6754    0.1674 C   0  0  0  0  0  0  0  0  0  0  0  0
    1.0835   -4.9124    0.0760 C   0  0  0  0  0  0  0  0  0  0  0  0
    0.3487   -6.0992   -0.0168 C   0  0  0  0  0  0  0  0  0  0  0  0
   -1.0513   -6.0604   -0.0186 C   0  0  0  0  0  0  0  0  0  0  0  0
   -1.7135   -4.8329    0.0898 C   0  0  0  0  0  0  0  0  0  0  0  0
   -0.9818   -3.6475    0.1844 C   0  0  0  0  0  0  0  0  0  0  0  0
   -2.0019   -7.5674   -0.2023 S   0  0  0  0  0  0  0  0  0  0  0  0
   -1.2803   -8.7753    0.4138 O   0  0  0  0  0  0  0  0  0  0  0  0
   -3.3089   -7.5527    0.6045 O   0  0  0  0  0  0  0  0  0  0  0  0
   -2.4341   -8.0636   -1.7874 O   0  0  0  0  0  0  0  0  0  0  0  0
   -3.4932   -6.4898   -2.5335 Na  0  0  0  0  0  0  0  0  0  0  0  0
    9.0859   -1.1980   -0.2077 S   0  0  0  0  0  0  0  0  0  0  0  0
    9.7362    0.0007    0.4993 O   0  0  0  0  0  0  0  0  0  0  0  0
    9.6793   -2.3672    0.5926 O   0  0  0  0  0  0  0  0  0  0  0  0
    9.8273   -1.2954   -1.7519 O   0  0  0  0  0  0  0  0  0  0  0  0
    9.1887    0.3785   -2.7186 Na  0  0  0  0  0  0  0  0  0  0  0  0
    0.5596    0.9998    0.1360 H   0  0  0  0  0  0  0  0  0  0  0  0
    2.6181    2.2508    0.0705 H   0  0  0  0  0  0  0  0  0  0  0  0
    5.0612    2.2110   -0.0212 H   0  0  0  0  0  0  0  0  0  0  0  0
    7.1651    0.9625   -0.1090 H   0  0  0  0  0  0  0  0  0  0  0  0
    7.1179   -3.3300   -0.0892 H   0  0  0  0  0  0  0  0  0  0  0  0
    4.6811   -3.3359    0.0332 H   0  0  0  0  0  0  0  0  0  0  0  0
    2.1651   -4.9613    0.0619 H   0  0  0  0  0  0  0  0  0  0  0  0
    0.8693   -7.0446   -0.1018 H   0  0  0  0  0  0  0  0  0  0  0  0
   -2.7952   -4.7927    0.0864 H   0  0  0  0  0  0  0  0  0  0  0  0
   -1.5048   -2.7017    0.2533 H   0  0  0  0  0  0  0  0  0  0  0  0
  1  2  1  0  0  0  0
  1 30  1  0  0  0  0
  2  3  2  0  0  0  0
  2 11  1  0  0  0  0
  3  4  1  0  0  0  0
  3 31  1  0  0  0  0
  4  5  2  0  0  0  0
  4 32  1  0  0  0  0
  5  6  1  0  0  0  0
  5 10  1  0  0  0  0
  6  7  2  0  0  0  0
  6 33  1  0  0  0  0
  7  8  1  0  0  0  0
  7 25  1  0  0  0  0
  8  9  2  0  0  0  0
  8 34  1  0  0  0  0
  9 10  1  0  0  0  0
  9 35  1  0  0  0  0
 10 11  2  0  0  0  0
 11 12  1  0  0  0  0
 12 13  2  3  0  0  0
 13 14  1  0  0  0  0
 14 15  2  0  0  0  0
 14 19  1  0  0  0  0
 15 16  1  0  0  0  0
 15 36  1  0  0  0  0
 16 17  2  0  0  0  0
 16 37  1  0  0  0  0
 17 18  1  0  0  0  0
 17 20  1  0  0  0  0
 18 19  2  0  0  0  0
 18 38  1  0  0  0  0
 19 39  1  0  0  0  0
 20 21  2  0  0  0  0
 20 22  2  0  0  0  0
 20 23  1  0  0  0  0
 23 24  1  0  0  0  0
 25 26  2  0  0  0  0
 25 27  2  0  0  0  0
 25 28  1  0  0  0  0
 28 29  1  0  0  0  0
M  END
$$$$

 OpenBabel12201709243D

 36 36  0  0  0  0  0  0  0  0999 V2000
    2.8879    0.9945   -0.7461 C   0  0  0  0  0  0  0  0  0  0  0  0
    2.4857   -0.2582   -0.1086 N   0  0  0  0  0  0  0  0  0  0  0  0
    3.1880   -0.6575    1.0456 C   0  0  0  0  0  0  0  0  0  0  0  0
    3.7932    0.2558    1.9174 C   0  0  0  0  0  0  0  0  0  0  0  0
    4.4952   -0.1618    3.0650 C   0  0  0  0  0  0  0  0  0  0  0  0
    4.6126   -1.5111    3.4046 C   0  0  0  0  0  0  0  0  0  0  0  0
    3.9075   -2.4141    2.5957 C   0  0  0  0  0  0  0  0  0  0  0  0
    3.1933   -1.9979    1.4560 C   0  0  0  0  0  0  0  0  0  0  0  0
    2.4639   -3.0051    0.7113 N   0  0  0  0  0  0  0  0  0  0  0  0
    2.9165   -4.1332    0.6351 O   0  0  0  0  0  0  0  0  0  0  0  0
    1.2511   -2.7185    0.1098 O   0  0  0  0  0  0  0  0  0  0  0  0
    5.3829   -1.9733    4.4708 N   0  0  0  0  0  0  0  0  0  0  0  0
    5.8160   -1.0913    5.5812 C   0  0  0  0  0  0  0  0  0  0  0  0
    4.6537   -0.6364    6.4787 C   0  0  0  0  0  0  0  0  0  0  0  0
    3.9405   -1.7406    7.0302 O   0  0  0  0  0  0  0  0  0  0  0  0
    6.3108   -3.1028    4.1647 C   0  0  0  0  0  0  0  0  0  0  0  0
    7.3542   -2.7747    3.0798 C   0  0  0  0  0  0  0  0  0  0  0  0
    8.1688   -1.6617    3.4449 O   0  0  0  0  0  0  0  0  0  0  0  0
    2.3134    1.1239   -1.6691 H   0  0  0  0  0  0  0  0  0  0  0  0
    3.9494    0.9695   -1.0163 H   0  0  0  0  0  0  0  0  0  0  0  0
    2.6834    1.8638   -0.1145 H   0  0  0  0  0  0  0  0  0  0  0  0
    2.4944   -1.0020   -0.8133 H   0  0  0  0  0  0  0  0  0  0  0  0
    3.7549    1.3246    1.7245 H   0  0  0  0  0  0  0  0  0  0  0  0
    4.9788    0.6087    3.6587 H   0  0  0  0  0  0  0  0  0  0  0  0
    3.8895   -3.4715    2.8549 H   0  0  0  0  0  0  0  0  0  0  0  0
    1.1021   -1.8007    0.3839 H   0  0  0  0  0  0  0  0  0  0  0  0
    6.3711   -0.2249    5.2064 H   0  0  0  0  0  0  0  0  0  0  0  0
    6.5090   -1.6465    6.2257 H   0  0  0  0  0  0  0  0  0  0  0  0
    3.9402   -0.0051    5.9429 H   0  0  0  0  0  0  0  0  0  0  0  0
    5.0525   -0.0543    7.3162 H   0  0  0  0  0  0  0  0  0  0  0  0
    3.5476   -2.2013    6.2651 H   0  0  0  0  0  0  0  0  0  0  0  0
    5.7461   -3.9936    3.8698 H   0  0  0  0  0  0  0  0  0  0  0  0
    6.8446   -3.3868    5.0797 H   0  0  0  0  0  0  0  0  0  0  0  0
    6.8920   -2.5570    2.1113 H   0  0  0  0  0  0  0  0  0  0  0  0
    8.0175   -3.6345    2.9394 H   0  0  0  0  0  0  0  0  0  0  0  0
    7.5812   -0.8878    3.3936 H   0  0  0  0  0  0  0  0  0  0  0  0
  1  2  1  0  0  0  0
  1 19  1  0  0  0  0
  1 20  1  0  0  0  0
  1 21  1  0  0  0  0
  2  3  1  0  0  0  0
  2 22  1  0  0  0  0
  3  4  2  0  0  0  0
  3  8  1  0  0  0  0
  4  5  1  0  0  0  0
  4 23  1  0  0  0  0
  5  6  2  0  0  0  0
  5 24  1  0  0  0  0
  6  7  1  0  0  0  0
  6 12  1  0  0  0  0
  7  8  2  0  0  0  0
  7 25  1  0  0  0  0
  8  9  1  0  0  0  0
  9 10  2  0  0  0  0
  9 11  1  0  0  0  0
 11 26  1  0  0  0  0
 12 13  1  0  0  0  0
 12 16  1  0  0  0  0
 13 14  1  0  0  0  0
 13 27  1  0  0  0  0
 13 28  1  0  0  0  0
 14 15  1  0  0  0  0
 14 29  1  0  0  0  0
 14 30  1  0  0  0  0
 15 31  1  0  0  0  0
 16 17  1  0  0  0  0
 16 32  1  0  0  0  0
 16 33  1  0  0  0  0
 17 18  1  0  0  0  0
 17 34  1  0  0  0  0
 17 35  1  0  0  0  0
 18 36  1  0  0  0  0
M  END
$$$$

 OpenBabel12201709243D

 35 36  0  0  0  0  0  0  0  0999 V2000
    1.1644   -0.2444    0.2128 C   0  0  0  0  0  0  0  0  0  0  0  0
    2.6317    0.1030    0.1956 C   0  0  0  0  0  0  0  0  0  0  0  0
    2.9906    1.2756    0.1935 O   0  0  0  0  0  0  0  0  0  0  0  0
    3.4434   -1.0198    0.1694 N   0  0  0  0  0  0  0  0  0  0  0  0
    4.8537   -1.0460    0.0884 C   0  0  0  0  0  0  0  0  0  0  0  0
    5.6457    0.1016    0.0458 C   0  0  0  0  0  0  0  0  0  0  0  0
    7.0326    0.0084   -0.1169 C   0  0  0  0  0  0  0  0  0  0  0  0
    7.6672   -1.2304   -0.2342 C   0  0  0  0  0  0  0  0  0  0  0  0
    9.0368   -1.2406   -0.5616 N   0  0  0  0  0  0  0  0  0  0  0  0
    9.6886   -2.1172    0.0469 N   0  0  0  0  0  0  0  0  0  0  0  0
   11.0348   -2.1528   -0.3970 C   0  0  0  0  0  0  0  0  0  0  0  0
   11.7687   -0.9853   -0.6889 C   0  0  0  0  0  0  0  0  0  0  0  0
   13.0955   -1.0445   -1.1427 C   0  0  0  0  0  0  0  0  0  0  0  0
   13.8463    0.2030   -1.5058 C   0  0  0  0  0  0  0  0  0  0  0  0
   13.7108   -2.2930   -1.2827 C   0  0  0  0  0  0  0  0  0  0  0  0
   13.0119   -3.4625   -0.9816 C   0  0  0  0  0  0  0  0  0  0  0  0
   11.6861   -3.3876   -0.5480 C   0  0  0  0  0  0  0  0  0  0  0  0
   11.0034   -4.5464   -0.2761 O   0  0  0  0  0  0  0  0  0  0  0  0
    6.8797   -2.3841   -0.1487 C   0  0  0  0  0  0  0  0  0  0  0  0
    5.4865   -2.2944    0.0128 C   0  0  0  0  0  0  0  0  0  0  0  0
    0.5763    0.6748    0.2911 H   0  0  0  0  0  0  0  0  0  0  0  0
    0.9359   -0.8775    1.0742 H   0  0  0  0  0  0  0  0  0  0  0  0
    0.8914   -0.7553   -0.7138 H   0  0  0  0  0  0  0  0  0  0  0  0
    2.9795   -1.9193    0.1655 H   0  0  0  0  0  0  0  0  0  0  0  0
    5.2174    1.0976    0.1114 H   0  0  0  0  0  0  0  0  0  0  0  0
    7.6207    0.9200   -0.1809 H   0  0  0  0  0  0  0  0  0  0  0  0
   11.2863   -0.0175   -0.5686 H   0  0  0  0  0  0  0  0  0  0  0  0
   13.2668    1.1032   -1.2778 H   0  0  0  0  0  0  0  0  0  0  0  0
   14.0666    0.2065   -2.5786 H   0  0  0  0  0  0  0  0  0  0  0  0
   14.7859    0.2584   -0.9469 H   0  0  0  0  0  0  0  0  0  0  0  0
   14.7394   -2.3593   -1.6319 H   0  0  0  0  0  0  0  0  0  0  0  0
   13.5136   -4.4186   -1.0958 H   0  0  0  0  0  0  0  0  0  0  0  0
   11.5648   -5.3053   -0.5051 H   0  0  0  0  0  0  0  0  0  0  0  0
    7.3470   -3.3618   -0.2413 H   0  0  0  0  0  0  0  0  0  0  0  0
    4.9111   -3.2146    0.0498 H   0  0  0  0  0  0  0  0  0  0  0  0
  1  2  1  0  0  0  0
  1 21  1  0  0  0  0
  1 22  1  0  0  0  0
  1 23  1  0  0  0  0
  2  3  2  0  0  0  0
  2  4  1  0  0  0  0
  4  5  1  0  0  0  0
  4 24  1  0  0  0  0
  5  6  2  0  0  0  0
  5 20  1  0  0  0  0
  6  7  1  0  0  0  0
  6 25  1  0  0  0  0
  7  8  2  0  0  0  0
  7 26  1  0  0  0  0
  8  9  1  0  0  0  0
  8 19  1  0  0  0  0
  9 10  2  3  0  0  0
 10 11  1  0  0  0  0
 11 12  2  0  0  0  0
 11 17  1  0  0  0  0
 12 13  1  0  0  0  0
 12 27  1  0  0  0  0
 13 14  1  0  0  0  0
 13 15  2  0  0  0  0
 14 28  1  0  0  0  0
 14 29  1  0  0  0  0
 14 30  1  0  0  0  0
 15 16  1  0  0  0  0
 15 31  1  0  0  0  0
 16 17  2  0  0  0  0
 16 32  1  0  0  0  0
 17 18  1  0  0  0  0
 18 33  1  0  0  0  0
 19 20  2  0  0  0  0
 19 34  1  0  0  0  0
 20 35  1  0  0  0  0
M  END
$$$$

 OpenBabel12201709243D

 30 32  0  0  0  0  0  0  0  0999 V2000
    1.1467    0.2275    0.8952 C   0  0  0  0  0  0  0  0  0  0  0  0
    2.6446    0.1252    0.9922 C   0  0  0  0  0  0  0  0  0  0  0  0
    3.1796   -0.7594    1.6525 O   0  0  0  0  0  0  0  0  0  0  0  0
    3.2956    1.1023    0.2601 N   0  0  0  0  0  0  0  0  0  0  0  0
    4.6970    1.2136    0.1952 C   0  0  0  0  0  0  0  0  0  0  0  0
    5.4621    1.0655    1.3663 C   0  0  0  0  0  0  0  0  0  0  0  0
    6.8606    1.1684    1.3486 C   0  0  0  0  0  0  0  0  0  0  0  0
    7.5323    1.3948    0.1530 C   0  0  0  0  0  0  0  0  0  0  0  0
    6.7751    1.5381   -1.0015 C   0  0  0  0  0  0  0  0  0  0  0  0
    7.3077    1.7044   -2.4055 C   0  0  0  0  0  0  0  0  0  0  0  0
    6.0407    1.7597   -3.2215 C   0  0  0  0  0  0  0  0  0  0  0  0
    5.9399    1.8946   -4.5972 C   0  0  0  0  0  0  0  0  0  0  0  0
    4.6659    1.9161   -5.1645 C   0  0  0  0  0  0  0  0  0  0  0  0
    3.5311    1.7946   -4.3554 C   0  0  0  0  0  0  0  0  0  0  0  0
    3.6432    1.6515   -2.9667 C   0  0  0  0  0  0  0  0  0  0  0  0
    4.9045    1.6360   -2.3861 C   0  0  0  0  0  0  0  0  0  0  0  0
    5.3560    1.4854   -1.0025 C   0  0  0  0  0  0  0  0  0  0  0  0
    0.6969   -0.7005    1.2602 H   0  0  0  0  0  0  0  0  0  0  0  0
    0.8337    0.3759   -0.1420 H   0  0  0  0  0  0  0  0  0  0  0  0
    0.8030    1.0607    1.5128 H   0  0  0  0  0  0  0  0  0  0  0  0
    2.7662    1.5633   -0.4614 H   0  0  0  0  0  0  0  0  0  0  0  0
    4.9716    0.8852    2.3214 H   0  0  0  0  0  0  0  0  0  0  0  0
    7.4173    1.0525    2.2752 H   0  0  0  0  0  0  0  0  0  0  0  0
    8.6162    1.4368    0.1262 H   0  0  0  0  0  0  0  0  0  0  0  0
    7.9103    0.8356   -2.6918 H   0  0  0  0  0  0  0  0  0  0  0  0
    7.8777    2.6330   -2.4996 H   0  0  0  0  0  0  0  0  0  0  0  0
    6.8260    1.9771   -5.2185 H   0  0  0  0  0  0  0  0  0  0  0  0
    4.5570    2.0147   -6.2401 H   0  0  0  0  0  0  0  0  0  0  0  0
    2.5449    1.8061   -4.8148 H   0  0  0  0  0  0  0  0  0  0  0  0
    2.7338    1.5435   -2.3958 H   0  0  0  0  0  0  0  0  0  0  0  0
  1  2  1  0  0  0  0
  1 18  1  0  0  0  0
  1 19  1  0  0  0  0
  1 20  1  0  0  0  0
  2  3  2  0  0  0  0
  2  4  1  0  0  0  0
  4  5  1  0  0  0  0
  4 21  1  0  0  0  0
  5  6  2  0  0  0  0
  5 17  1  0  0  0  0
  6  7  1  0  0  0  0
  6 22  1  0  0  0  0
  7  8  2  0  0  0  0
  7 23  1  0  0  0  0
  8  9  1  0  0  0  0
  8 24  1  0  0  0  0
  9 10  1  0  0  0  0
  9 17  2  0  0  0  0
 10 11  1  0  0  0  0
 10 25  1  0  0  0  0
 10 26  1  0  0  0  0
 11 12  2  0  0  0  0
 11 16  1  0  0  0  0
 12 13  1  0  0  0  0
 12 27  1  0  0  0  0
 13 14  2  0  0  0  0
 13 28  1  0  0  0  0
 14 15  1  0  0  0  0
 14 29  1  0  0  0  0
 15 16  2  0  0  0  0
 15 30  1  0  0  0  0
 16 17  1  0  0  0  0
M  END
$$$$

 OpenBabel12201709243D

 24 23  0  0  0  0  0  0  0  0999 V2000
    2.8685   -0.9033    1.2728 C   0  0  0  0  0  0  0  0  0  0  0  0
    2.5479   -0.0389    0.0518 C   0  0  0  0  0  0  0  0  0  0  0  0
    1.0324    0.0292   -0.1511 C   0  0  0  0  0  0  0  0  0  0  0  0
    3.1174    1.3792    0.1910 C   0  0  0  0  0  0  0  0  0  0  0  0
    4.6187    1.4229    0.3519 C   0  0  0  0  0  0  0  0  0  0  0  0
    5.1760    1.9683    1.2953 O   0  0  0  0  0  0  0  0  0  0  0  0
    5.2376    0.8261   -0.6996 O   0  0  0  0  0  0  0  0  0  0  0  0
    6.6697    0.8143   -0.6639 C   0  0  0  0  0  0  0  0  0  0  0  0
    7.1200   -0.6125   -0.7340 C   0  0  0  0  0  0  0  0  0  0  0  0
    7.8287   -1.2275    0.2222 C   0  0  0  0  0  0  0  0  0  0  0  0
    2.4528   -1.9096    1.1531 H   0  0  0  0  0  0  0  0  0  0  0  0
    2.4488   -0.4708    2.1873 H   0  0  0  0  0  0  0  0  0  0  0  0
    3.9490   -1.0103    1.4120 H   0  0  0  0  0  0  0  0  0  0  0  0
    2.9872   -0.5208   -0.8305 H   0  0  0  0  0  0  0  0  0  0  0  0
    0.5363    0.4923    0.7093 H   0  0  0  0  0  0  0  0  0  0  0  0
    0.6113   -0.9730   -0.2835 H   0  0  0  0  0  0  0  0  0  0  0  0
    0.7836    0.6170   -1.0409 H   0  0  0  0  0  0  0  0  0  0  0  0
    2.6740    1.8762    1.0630 H   0  0  0  0  0  0  0  0  0  0  0  0
    2.8618    1.9895   -0.6836 H   0  0  0  0  0  0  0  0  0  0  0  0
    7.0890    1.3236    0.2106 H   0  0  0  0  0  0  0  0  0  0  0  0
    7.0261    1.3463   -1.5524 H   0  0  0  0  0  0  0  0  0  0  0  0
    6.8502   -1.1631   -1.6319 H   0  0  0  0  0  0  0  0  0  0  0  0
    8.1145   -0.7161    1.1374 H   0  0  0  0  0  0  0  0  0  0  0  0
    8.1320   -2.2640    0.1124 H   0  0  0  0  0  0  0  0  0  0  0  0
  1  2  1  0  0  0  0
  1 11  1  0  0  0  0
  1 12  1  0  0  0  0
  1 13  1  0  0  0  0
  2  3  1  0  0  0  0
  2  4  1  0  0  0  0
  2 14  1  0  0  0  0
  3 15  1  0  0  0  0
  3 16  1  0  0  0  0
  3 17  1  0  0  0  0
  4  5  1  0  0  0  0
  4 18  1  0  0  0  0
  4 19  1  0  0  0  0
  5  6  2  0  0  0  0
  5  7  1  0  0  0  0
  7  8  1  0  0  0  0
  8  9  1  0  0  0  0
  8 20  1  0  0  0  0
  8 21  1  0  0  0  0
  9 10  2  0  0  0  0
  9 22  1  0  0  0  0
 10 23  1  0  0  0  0
 10 24  1  0  0  0  0
M  END
$$$$

 OpenBabel12201709243D

 80 87  0  0  0  0  0  0  0  0999 V2000
    1.1898    0.4758    0.5260 N   0  0  0  0  0  0  0  0  0  0  0  0
    2.5964    0.3603    0.4055 C   0  0  0  0  0  0  0  0  0  0  0  0
    3.1367   -0.9488    0.3227 C   0  0  0  0  0  0  0  0  0  0  0  0
    4.5066   -1.1629    0.1264 C   0  0  0  0  0  0  0  0  0  0  0  0
    5.3493   -0.0662   -0.0294 C   0  0  0  0  0  0  0  0  0  0  0  0
    4.8400    1.2448   -0.0021 C   0  0  0  0  0  0  0  0  0  0  0  0
    5.7371    2.2995   -0.1991 C   0  0  0  0  0  0  0  0  0  0  0  0
    5.2828    3.6013   -0.2646 C   0  0  0  0  0  0  0  0  0  0  0  0
    3.9314    3.8899   -0.0896 C   0  0  0  0  0  0  0  0  0  0  0  0
    3.4033    5.1958   -0.2489 N   0  0  0  0  0  0  0  0  0  0  0  0
    2.1921    5.4481   -0.3939 N   0  0  0  0  0  0  0  0  0  0  0  0
    1.6597    6.7605   -0.2308 C   0  0  0  0  0  0  0  0  0  0  0  0
    0.4293    7.1617   -0.7494 C   0  0  0  0  0  0  0  0  0  0  0  0
    0.0498    8.5126   -0.6931 C   0  0  0  0  0  0  0  0  0  0  0  0
    0.9361    9.5056   -0.2128 C   0  0  0  0  0  0  0  0  0  0  0  0
    2.1523    9.0578    0.3961 C   0  0  0  0  0  0  0  0  0  0  0  0
    2.4179    7.6560    0.4716 C   0  0  0  0  0  0  0  0  0  0  0  0
    3.3220    7.0516    1.2820 O   0  0  0  0  0  0  0  0  0  0  0  0
    2.5988    5.2011    1.9101 Cu  0  0  0  0  0  0  0  0  0  0  0  0
    2.0059    3.4368    0.9697 O   0  0  0  0  0  0  0  0  0  0  0  0
    3.0908    2.8917    0.3225 C   0  0  0  0  0  0  0  0  0  0  0  0
    3.4611    1.5097    0.2574 C   0  0  0  0  0  0  0  0  0  0  0  0
    0.5481   10.9578   -0.4423 C   0  0  0  0  0  0  0  0  0  0  0  0
    1.5173   11.8739   -0.9129 C   0  0  0  0  0  0  0  0  0  0  0  0
    1.1354   13.1333   -1.4114 C   0  0  0  0  0  0  0  0  0  0  0  0
   -0.1678   13.5734   -1.3018 C   0  0  0  0  0  0  0  0  0  0  0  0
   -0.5673   14.8384   -1.8262 N   0  0  0  0  0  0  0  0  0  0  0  0
   -1.4368   15.3997   -1.1508 N   0  0  0  0  0  0  0  0  0  0  0  0
   -2.0943   16.6053   -1.3078 C   0  0  0  0  0  0  0  0  0  0  0  0
   -3.1861   16.7347   -2.1409 C   0  0  0  0  0  0  0  0  0  0  0  0
   -3.9167   17.9159   -2.0995 C   0  0  0  0  0  0  0  0  0  0  0  0
   -3.4924   18.9942   -1.3031 C   0  0  0  0  0  0  0  0  0  0  0  0
   -4.2385   20.1744   -1.3337 C   0  0  0  0  0  0  0  0  0  0  0  0
   -3.8412   21.2874   -0.6078 C   0  0  0  0  0  0  0  0  0  0  0  0
   -2.6704   21.2366    0.1560 C   0  0  0  0  0  0  0  0  0  0  0  0
   -1.9148   20.0450    0.2525 C   0  0  0  0  0  0  0  0  0  0  0  0
   -0.6857   20.0974    0.9648 N   0  0  0  0  0  0  0  0  0  0  0  0
   -2.3459   18.8798   -0.4590 C   0  0  0  0  0  0  0  0  0  0  0  0
   -1.7565   17.5745   -0.3966 C   0  0  0  0  0  0  0  0  0  0  0  0
   -0.9749   17.0865    0.6003 O   0  0  0  0  0  0  0  0  0  0  0  0
   -1.3960   15.1146    1.0559 Cu  0  0  0  0  0  0  0  0  0  0  0  0
   -2.1148   13.4688    0.0113 O   0  0  0  0  0  0  0  0  0  0  0  0
   -1.0666   12.8058   -0.5458 C   0  0  0  0  0  0  0  0  0  0  0  0
   -0.7756   11.4491   -0.2510 C   0  0  0  0  0  0  0  0  0  0  0  0
   -4.8454   22.7729   -0.7241 S   0  0  0  0  0  0  0  0  0  0  0  0
   -6.2014   22.5505   -0.0366 O   0  0  0  0  0  0  0  0  0  0  0  0
   -4.3013   23.9667    0.0734 O   0  0  0  0  0  0  0  0  0  0  0  0
   -5.2578   23.3791   -2.2778 O   0  0  0  0  0  0  0  0  0  0  0  0
   -3.4987   23.9167   -3.1479 Na  0  0  0  0  0  0  0  0  0  0  0  0
   -3.7631   15.3333   -3.1067 S   0  0  0  0  0  0  0  0  0  0  0  0
   -5.1864   15.5558   -3.6358 O   0  0  0  0  0  0  0  0  0  0  0  0
   -2.9754   15.1953   -4.4165 O   0  0  0  0  0  0  0  0  0  0  0  0
   -3.7763   13.7530   -2.4224 O   0  0  0  0  0  0  0  0  0  0  0  0
   -5.0493   13.7363   -0.8175 Na  0  0  0  0  0  0  0  0  0  0  0  0
    6.4408    4.9556   -0.4114 S   0  0  0  0  0  0  0  0  0  0  0  0
    7.8821    4.5243   -0.7288 O   0  0  0  0  0  0  0  0  0  0  0  0
    6.1066    5.9336   -1.5477 O   0  0  0  0  0  0  0  0  0  0  0  0
    6.5548    5.9119    1.0093 O   0  0  0  0  0  0  0  0  0  0  0  0
    6.7275    4.5386    2.5278 Na  0  0  0  0  0  0  0  0  0  0  0  0
    5.2388   -2.8054    0.0423 S   0  0  0  0  0  0  0  0  0  0  0  0
    6.2225   -3.0493    1.1979 O   0  0  0  0  0  0  0  0  0  0  0  0
    4.2145   -3.9243    0.2865 O   0  0  0  0  0  0  0  0  0  0  0  0
    6.0843   -3.2745   -1.3787 O   0  0  0  0  0  0  0  0  0  0  0  0
    7.6494   -1.9727   -1.5377 Na  0  0  0  0  0  0  0  0  0  0  0  0
    0.5942   -0.3776    0.5079 H   0  0  0  0  0  0  0  0  0  0  0  0
    0.7133    1.3763    0.4384 H   0  0  0  0  0  0  0  0  0  0  0  0
    2.4890   -1.8194    0.3993 H   0  0  0  0  0  0  0  0  0  0  0  0
    6.3982   -0.2383   -0.2072 H   0  0  0  0  0  0  0  0  0  0  0  0
    6.7968    2.0905   -0.3397 H   0  0  0  0  0  0  0  0  0  0  0  0
   -0.2253    6.4281   -1.1989 H   0  0  0  0  0  0  0  0  0  0  0  0
   -0.9047    8.7818   -1.1157 H   0  0  0  0  0  0  0  0  0  0  0  0
    2.8290    9.7753    0.8440 H   0  0  0  0  0  0  0  0  0  0  0  0
    2.5579   11.6039   -0.9790 H   0  0  0  0  0  0  0  0  0  0  0  0
    1.8569   13.8098   -1.8455 H   0  0  0  0  0  0  0  0  0  0  0  0
   -4.8143   17.9974   -2.6957 H   0  0  0  0  0  0  0  0  0  0  0  0
   -5.1380   20.2342   -1.9372 H   0  0  0  0  0  0  0  0  0  0  0  0
   -2.3397   22.1345    0.6678 H   0  0  0  0  0  0  0  0  0  0  0  0
   -0.3531   20.9978    1.3503 H   0  0  0  0  0  0  0  0  0  0  0  0
   -0.0100   19.3230    0.9389 H   0  0  0  0  0  0  0  0  0  0  0  0
   -1.5334   10.8174    0.2023 H   0  0  0  0  0  0  0  0  0  0  0  0
  1  2  1  0  0  0  0
  1 65  1  0  0  0  0
  1 66  1  0  0  0  0
  2  3  2  0  0  0  0
  2 22  1  0  0  0  0
  3  4  1  0  0  0  0
  3 67  1  0  0  0  0
  4  5  2  0  0  0  0
  4 60  1  0  0  0  0
  5  6  1  0  0  0  0
  5 68  1  0  0  0  0
  6  7  2  0  0  0  0
  6 22  1  0  0  0  0
  7  8  1  0  0  0  0
  7 69  1  0  0  0  0
  8  9  2  0  0  0  0
  8 55  1  0  0  0  0
  9 10  1  0  0  0  0
  9 21  1  0  0  0  0
 10 11  2  3  0  0  0
 11 12  1  0  0  0  0
 12 13  2  0  0  0  0
 12 17  1  0  0  0  0
 13 14  1  0  0  0  0
 13 70  1  0  0  0  0
 14 15  2  0  0  0  0
 14 71  1  0  0  0  0
 15 16  1  0  0  0  0
 15 23  1  0  0  0  0
 16 17  2  0  0  0  0
 16 72  1  0  0  0  0
 17 18  1  0  0  0  0
 18 19  1  0  0  0  0
 19 20  1  0  0  0  0
 20 21  1  0  0  0  0
 21 22  2  0  0  0  0
 23 24  2  0  0  0  0
 23 44  1  0  0  0  0
 24 25  1  0  0  0  0
 24 73  1  0  0  0  0
 25 26  2  0  0  0  0
 25 74  1  0  0  0  0
 26 27  1  0  0  0  0
 26 43  1  0  0  0  0
 27 28  2  3  0  0  0
 28 29  1  0  0  0  0
 29 30  2  0  0  0  0
 29 39  1  0  0  0  0
 30 31  1  0  0  0  0
 30 50  1  0  0  0  0
 31 32  2  0  0  0  0
 31 75  1  0  0  0  0
 32 33  1  0  0  0  0
 32 38  1  0  0  0  0
 33 34  2  0  0  0  0
 33 76  1  0  0  0  0
 34 35  1  0  0  0  0
 34 45  1  0  0  0  0
 35 36  2  0  0  0  0
 35 77  1  0  0  0  0
 36 37  1  0  0  0  0
 36 38  1  0  0  0  0
 37 78  1  0  0  0  0
 37 79  1  0  0  0  0
 38 39  2  0  0  0  0
 39 40  1  0  0  0  0
 40 41  1  0  0  0  0
 41 42  1  0  0  0  0
 42 43  1  0  0  0  0
 43 44  2  0  0  0  0
 44 80  1  0  0  0  0
 45 46  2  0  0  0  0
 45 47  2  0  0  0  0
 45 48  1  0  0  0  0
 48 49  1  0  0  0  0
 50 51  2  0  0  0  0
 50 52  2  0  0  0  0
 50 53  1  0  0  0  0
 53 54  1  0  0  0  0
 55 56  2  0  0  0  0
 55 57  2  0  0  0  0
 55 58  1  0  0  0  0
 58 59  1  0  0  0  0
 60 61  2  0  0  0  0
 60 62  2  0  0  0  0
 60 63  1  0  0  0  0
 63 64  1  0  0  0  0
M  END
$$$$

 OpenBabel12201709243D

 26 26  0  0  0  0  0  0  0  0999 V2000
    1.0150    0.0324    0.2801 N   0  0  0  0  0  0  0  0  0  0  0  0
    2.3877    0.0083    0.0191 C   0  0  0  0  0  0  0  0  0  0  0  0
    3.1348    1.1846    0.0666 C   0  0  0  0  0  0  0  0  0  0  0  0
    4.5329    1.1582   -0.0260 C   0  0  0  0  0  0  0  0  0  0  0  0
    5.2293   -0.0542   -0.0939 C   0  0  0  0  0  0  0  0  0  0  0  0
    6.6357   -0.1212   -0.2200 N   0  0  0  0  0  0  0  0  0  0  0  0
    7.4131    0.9686    0.4121 C   0  0  0  0  0  0  0  0  0  0  0  0
    8.8094    0.4501    0.7669 C   0  0  0  0  0  0  0  0  0  0  0  0
    9.4981    0.0244   -0.4071 O   0  0  0  0  0  0  0  0  0  0  0  0
    4.4677   -1.2357   -0.1537 C   0  0  0  0  0  0  0  0  0  0  0  0
    3.0682   -1.2050   -0.0593 C   0  0  0  0  0  0  0  0  0  0  0  0
    5.1144   -2.5365   -0.2551 N   0  0  0  0  0  0  0  0  0  0  0  0
    4.4828   -3.4778   -0.6970 O   0  0  0  0  0  0  0  0  0  0  0  0
    6.4271   -2.7379    0.1460 O   0  0  0  0  0  0  0  0  0  0  0  0
    0.5507    0.8933    0.0101 H   0  0  0  0  0  0  0  0  0  0  0  0
    0.5168   -0.7924   -0.0416 H   0  0  0  0  0  0  0  0  0  0  0  0
    2.6338    2.1428    0.1783 H   0  0  0  0  0  0  0  0  0  0  0  0
    5.0562    2.1105   -0.0265 H   0  0  0  0  0  0  0  0  0  0  0  0
    6.8487   -0.1162   -1.2270 H   0  0  0  0  0  0  0  0  0  0  0  0
    6.9331    1.3214    1.3323 H   0  0  0  0  0  0  0  0  0  0  0  0
    7.4943    1.8018   -0.2955 H   0  0  0  0  0  0  0  0  0  0  0  0
    8.7523   -0.3960    1.4607 H   0  0  0  0  0  0  0  0  0  0  0  0
    9.3982    1.2430    1.2386 H   0  0  0  0  0  0  0  0  0  0  0  0
    9.0566   -0.7925   -0.7020 H   0  0  0  0  0  0  0  0  0  0  0  0
    2.5088   -2.1388   -0.0407 H   0  0  0  0  0  0  0  0  0  0  0  0
    6.6888   -1.8248    0.3633 H   0  0  0  0  0  0  0  0  0  0  0  0
  1  2  1  0  0  0  0
  1 15  1  0  0  0  0
  1 16  1  0  0  0  0
  2  3  2  0  0  0  0
  2 11  1  0  0  0  0
  3  4  1  0  0  0  0
  3 17  1  0  0  0  0
  4  5  2  0  0  0  0
  4 18  1  0  0  0  0
  5  6  1  0  0  0  0
  5 10  1  0  0  0  0
  6  7  1  0  0  0  0
  6 19  1  0  0  0  0
  7  8  1  0  0  0  0
  7 20  1  0  0  0  0
  7 21  1  0  0  0  0
  8  9  1  0  0  0  0
  8 22  1  0  0  0  0
  8 23  1  0  0  0  0
  9 24  1  0  0  0  0
 10 11  2  0  0  0  0
 10 12  1  0  0  0  0
 11 25  1  0  0  0  0
 12 13  2  0  0  0  0
 12 14  1  0  0  0  0
 14 26  1  0  0  0  0
M  END
$$$$

 OpenBabel12201709243D

 29 29  0  0  0  0  0  0  0  0999 V2000
    0.9601   -2.1045    0.1025 C   0  0  0  0  0  0  0  0  0  0  0  0
    2.4689   -2.1442    0.2110 C   0  0  0  0  0  0  0  0  0  0  0  0
    3.0309   -1.2246   -0.7221 O   0  0  0  0  0  0  0  0  0  0  0  0
    4.7609   -1.2246   -0.7221 P   0  0  0  0  0  0  0  0  0  0  0  0
    4.7490   -2.5644   -2.2648 S   0  0  0  0  0  0  0  0  0  0  0  0
    4.7524    0.2745   -1.4098 O   0  0  0  0  0  0  0  0  0  0  0  0
    4.7851    1.3981   -0.5539 C   0  0  0  0  0  0  0  0  0  0  0  0
    4.7301    2.6480   -1.4114 C   0  0  0  0  0  0  0  0  0  0  0  0
    6.4909   -1.2246   -0.7221 O   0  0  0  0  0  0  0  0  0  0  0  0
    7.0682   -2.1829    0.0697 C   0  0  0  0  0  0  0  0  0  0  0  0
    6.3265   -2.6333    1.1041 N   0  0  0  0  0  0  0  0  0  0  0  0
    6.8633   -3.6580    1.8149 C   0  0  0  0  0  0  0  0  0  0  0  0
    5.8604   -4.1405    3.1275 Cl  0  0  0  0  0  0  0  0  0  0  0  0
    8.0943   -4.2494    1.5371 C   0  0  0  0  0  0  0  0  0  0  0  0
    8.7213   -5.5878    2.4197 Cl  0  0  0  0  0  0  0  0  0  0  0  0
    8.8466   -3.7299    0.4847 C   0  0  0  0  0  0  0  0  0  0  0  0
    8.3351   -2.6637   -0.2538 C   0  0  0  0  0  0  0  0  0  0  0  0
    9.2738   -1.9974   -1.5314 Cl  0  0  0  0  0  0  0  0  0  0  0  0
    0.4989   -2.7076    0.8903 H   0  0  0  0  0  0  0  0  0  0  0  0
    0.6352   -2.4955   -0.8678 H   0  0  0  0  0  0  0  0  0  0  0  0
    0.5891   -1.0777    0.1747 H   0  0  0  0  0  0  0  0  0  0  0  0
    2.8274   -3.1583    0.0078 H   0  0  0  0  0  0  0  0  0  0  0  0
    2.7878   -1.8592    1.2182 H   0  0  0  0  0  0  0  0  0  0  0  0
    5.7109    1.3796    0.0287 H   0  0  0  0  0  0  0  0  0  0  0  0
    3.9318    1.3668    0.1297 H   0  0  0  0  0  0  0  0  0  0  0  0
    5.4979    2.6205   -2.1923 H   0  0  0  0  0  0  0  0  0  0  0  0
    4.8716    3.5473   -0.8059 H   0  0  0  0  0  0  0  0  0  0  0  0
    3.7639    2.7199   -1.9229 H   0  0  0  0  0  0  0  0  0  0  0  0
    9.8157   -4.1557    0.2343 H   0  0  0  0  0  0  0  0  0  0  0  0
  1  2  1  0  0  0  0
  1 19  1  0  0  0  0
  1 20  1  0  0  0  0
  1 21  1  0  0  0  0
  2  3  1  0  0  0  0
  2 22  1  0  0  0  0
  2 23  1  0  0  0  0
  3  4  1  0  0  0  0
  4  5  2  0  0  0  0
  4  6  1  0  0  0  0
  4  9  1  0  0  0  0
  6  7  1  0  0  0  0
  7  8  1  0  0  0  0
  7 24  1  0  0  0  0
  7 25  1  0  0  0  0
  8 26  1  0  0  0  0
  8 27  1  0  0  0  0
  8 28  1  0  0  0  0
  9 10  1  0  0  0  0
 10 11  2  0  0  0  0
 10 17  1  0  0  0  0
 11 12  1  0  0  0  0
 12 13  1  0  0  0  0
 12 14  2  0  0  0  0
 14 15  1  0  0  0  0
 14 16  1  0  0  0  0
 16 17  2  0  0  0  0
 16 29  1  0  0  0  0
 17 18  1  0  0  0  0
M  END
$$$$

 OpenBabel12201709243D

 37 41  0  0  1  0  0  0  0  0999 V2000
    0.5227   -1.9812   -1.0371 C   0  0  0  0  0  0  0  0  0  0  0  0
    1.7930   -1.5547   -0.5769 O   0  0  0  0  0  0  0  0  0  0  0  0
    2.2944   -2.2037    0.5231 C   0  0  0  0  0  0  0  0  0  0  0  0
    2.9833   -1.3069    1.4000 C   0  0  0  0  0  0  0  0  0  0  0  0
    3.7584   -1.8066    2.4343 C   0  0  0  0  0  0  0  0  0  0  0  0
    4.6197   -1.1071    3.2408 O   0  0  0  0  0  0  0  0  0  0  0  0
    5.3974   -2.1293    3.9454 C   0  0  3  0  0  0  0  0  0  0  0  0
    5.1921   -2.1531    5.3850 O   0  0  0  0  0  0  0  0  0  0  0  0
    4.9805   -3.4905    5.6819 C   0  0  0  0  0  0  0  0  0  0  0  0
    4.8271   -4.3076    4.6528 C   0  0  0  0  0  0  0  0  0  0  0  0
    5.0169   -3.5173    3.4243 C   0  0  3  0  0  0  0  0  0  0  0  0
    3.8196   -3.1546    2.6402 C   0  0  0  0  0  0  0  0  0  0  0  0
    3.0726   -4.0197    1.8796 C   0  0  0  0  0  0  0  0  0  0  0  0
    3.2873   -5.3592    2.1752 O   0  0  0  0  0  0  0  0  0  0  0  0
    3.9028   -5.8738    1.0676 C   0  0  0  0  0  0  0  0  0  0  0  0
    4.9186   -6.5367    1.0986 O   0  0  0  0  0  0  0  0  0  0  0  0
    2.9928   -5.7797   -0.0622 C   0  0  0  0  0  0  0  0  0  0  0  0
    2.7079   -6.9838   -0.8451 C   0  0  3  0  0  0  0  0  0  0  0  0
    3.5223   -7.0362   -1.9998 O   0  0  0  0  0  0  0  0  0  0  0  0
    1.2535   -6.7206   -1.2001 C   0  0  0  0  0  0  0  0  0  0  0  0
    1.0490   -5.1786   -1.1160 C   0  0  0  0  0  0  0  0  0  0  0  0
    2.1244   -4.7573   -0.1727 C   0  0  0  0  0  0  0  0  0  0  0  0
    2.3570   -3.6050    0.7323 C   0  0  0  0  0  0  0  0  0  0  0  0
   -0.0051   -1.1068   -1.4325 H   0  0  0  0  0  0  0  0  0  0  0  0
   -0.0954   -2.4205   -0.2483 H   0  0  0  0  0  0  0  0  0  0  0  0
    0.6579   -2.6675   -1.8726 H   0  0  0  0  0  0  0  0  0  0  0  0
    2.9993   -0.2399    1.1872 H   0  0  0  0  0  0  0  0  0  0  0  0
    6.4622   -1.9298    3.7666 H   0  0  0  0  0  0  0  0  0  0  0  0
    4.9288   -3.7360    6.7294 H   0  0  0  0  0  0  0  0  0  0  0  0
    4.6370   -5.3722    4.6857 H   0  0  0  0  0  0  0  0  0  0  0  0
    5.7906   -3.9241    2.7638 H   0  0  0  0  0  0  0  0  0  0  0  0
    2.8320   -7.9016   -0.2577 H   0  0  0  0  0  0  0  0  0  0  0  0
    4.2187   -7.6963   -1.8227 H   0  0  0  0  0  0  0  0  0  0  0  0
    0.6168   -7.2131   -0.4519 H   0  0  0  0  0  0  0  0  0  0  0  0
    0.9953   -7.1196   -2.1849 H   0  0  0  0  0  0  0  0  0  0  0  0
    0.0409   -4.9728   -0.7399 H   0  0  0  0  0  0  0  0  0  0  0  0
    1.1753   -4.7455   -2.1090 H   0  0  0  0  0  0  0  0  0  0  0  0
  1  2  1  0  0  0  0
  1 24  1  0  0  0  0
  1 25  1  0  0  0  0
  1 26  1  0  0  0  0
  2  3  1  0  0  0  0
  3  4  2  0  0  0  0
  3 23  1  0  0  0  0
  4  5  1  0  0  0  0
  4 27  1  0  0  0  0
  5  6  1  0  0  0  0
  5 12  2  0  0  0  0
  6  7  1  0  0  0  0
  7  8  1  0  0  0  0
  7 11  1  0  0  0  0
  7 28  1  0  0  0  0
  8  9  1  0  0  0  0
  9 10  2  0  0  0  0
  9 29  1  0  0  0  0
 10 11  1  0  0  0  0
 10 30  1  0  0  0  0
 11 12  1  0  0  0  0
 11 31  1  0  0  0  0
 12 13  1  0  0  0  0
 13 14  1  0  0  0  0
 13 23  2  0  0  0  0
 14 15  1  0  0  0  0
 15 16  2  0  0  0  0
 15 17  1  0  0  0  0
 17 18  1  0  0  0  0
 17 22  2  0  0  0  0
 18 19  1  0  0  0  0
 18 20  1  0  0  0  0
 18 32  1  0  0  0  0
 19 33  1  0  0  0  0
 20 21  1  0  0  0  0
 20 34  1  0  0  0  0
 20 35  1  0  0  0  0
 21 22  1  0  0  0  0
 21 36  1  0  0  0  0
 21 37  1  0  0  0  0
 22 23  1  0  0  0  0
M  END
$$$$

 OpenBabel12201709243D

 27 27  0  0  0  0  0  0  0  0999 V2000
    6.4707    1.3202   -3.2224 C   0  0  0  0  0  0  0  0  0  0  0  0
    5.3319    1.1478   -2.4013 O   0  0  0  0  0  0  0  0  0  0  0  0
    4.4273   -0.3127   -2.6047 P   0  0  0  0  0  0  0  0  0  0  0  0
    5.4666   -1.1835   -1.1151 S   0  0  0  0  0  0  0  0  0  0  0  0
    3.1009    0.4385   -1.9673 O   0  0  0  0  0  0  0  0  0  0  0  0
    2.4694    1.4655   -2.7048 C   0  0  0  0  0  0  0  0  0  0  0  0
    3.5227   -1.7733   -2.8082 O   0  0  0  0  0  0  0  0  0  0  0  0
    2.8553   -2.0925   -3.9636 C   0  0  0  0  0  0  0  0  0  0  0  0
    2.6502   -3.4525   -4.2094 C   0  0  0  0  0  0  0  0  0  0  0  0
    1.8890   -3.8716   -5.3091 C   0  0  0  0  0  0  0  0  0  0  0  0
    1.3122   -2.9230   -6.1613 C   0  0  0  0  0  0  0  0  0  0  0  0
    1.5037   -1.5646   -5.9125 C   0  0  0  0  0  0  0  0  0  0  0  0
    2.3006   -1.1557   -4.8331 C   0  0  0  0  0  0  0  0  0  0  0  0
    0.4734   -3.3581   -7.2627 N   0  0  0  0  0  0  0  0  0  0  0  0
   -0.1077   -4.4169   -7.1753 O   0  0  0  0  0  0  0  0  0  0  0  0
    0.3117   -2.5899   -8.4076 O   0  0  0  0  0  0  0  0  0  0  0  0
    7.1678    1.9846   -2.7036 H   0  0  0  0  0  0  0  0  0  0  0  0
    6.1698    1.7906   -4.1613 H   0  0  0  0  0  0  0  0  0  0  0  0
    6.9709    0.3706   -3.4260 H   0  0  0  0  0  0  0  0  0  0  0  0
    1.4160    1.2009   -2.8415 H   0  0  0  0  0  0  0  0  0  0  0  0
    2.9347    1.6108   -3.6841 H   0  0  0  0  0  0  0  0  0  0  0  0
    2.5302    2.4069   -2.1570 H   0  0  0  0  0  0  0  0  0  0  0  0
    3.0684   -4.1953   -3.5305 H   0  0  0  0  0  0  0  0  0  0  0  0
    1.7277   -4.9352   -5.4767 H   0  0  0  0  0  0  0  0  0  0  0  0
    1.0069   -0.8011   -6.5076 H   0  0  0  0  0  0  0  0  0  0  0  0
    2.4020   -0.0985   -4.6816 H   0  0  0  0  0  0  0  0  0  0  0  0
    1.0105   -1.9318   -8.3189 H   0  0  0  0  0  0  0  0  0  0  0  0
  1  2  1  0  0  0  0
  1 17  1  0  0  0  0
  1 18  1  0  0  0  0
  1 19  1  0  0  0  0
  2  3  1  0  0  0  0
  3  4  2  0  0  0  0
  3  5  1  0  0  0  0
  3  7  1  0  0  0  0
  5  6  1  0  0  0  0
  6 20  1  0  0  0  0
  6 21  1  0  0  0  0
  6 22  1  0  0  0  0
  7  8  1  0  0  0  0
  8  9  2  0  0  0  0
  8 13  1  0  0  0  0
  9 10  1  0  0  0  0
  9 23  1  0  0  0  0
 10 11  2  0  0  0  0
 10 24  1  0  0  0  0
 11 12  1  0  0  0  0
 11 14  1  0  0  0  0
 12 13  2  0  0  0  0
 12 25  1  0  0  0  0
 13 26  1  0  0  0  0
 14 15  2  0  0  0  0
 14 16  1  0  0  0  0
 16 27  1  0  0  0  0
M  END
$$$$

 OpenBabel12201709243D

 12 13  0  0  1  0  0  0  0  0999 V2000
   -0.0107    0.9182    0.0327 C   0  0  0  0  0  0  0  0  0  0  0  0
   -0.6008   -0.3837    0.0127 O   0  0  0  0  0  0  0  0  0  0  0  0
    0.8377   -0.3300    0.0107 C   0  0  3  0  0  0  0  0  0  0  0  0
    1.4913   -0.9197    1.2448 C   0  0  3  0  0  0  0  0  0  0  0  0
    1.3392   -2.3665    1.6448 C   0  0  0  0  0  0  0  0  0  0  0  0
    2.5156   -1.8950    0.9815 O   0  0  0  0  0  0  0  0  0  0  0  0
   -0.0795    1.4857    0.9517 H   0  0  0  0  0  0  0  0  0  0  0  0
   -0.0737    1.5104   -0.8714 H   0  0  0  0  0  0  0  0  0  0  0  0
    1.3256   -0.5602   -0.9326 H   0  0  0  0  0  0  0  0  0  0  0  0
    1.6945   -0.2186    2.0490 H   0  0  0  0  0  0  0  0  0  0  0  0
    0.6521   -2.9841    1.0801 H   0  0  0  0  0  0  0  0  0  0  0  0
    1.4200   -2.6189    2.6941 H   0  0  0  0  0  0  0  0  0  0  0  0
  1  2  1  0  0  0  0
  1  3  1  0  0  0  0
  1  7  1  0  0  0  0
  1  8  1  0  0  0  0
  2  3  1  0  0  0  0
  3  4  1  0  0  0  0
  3  9  1  0  0  0  0
  4  5  1  0  0  0  0
  4  6  1  0  0  0  0
  4 10  1  0  0  0  0
  5  6  1  0  0  0  0
  5 11  1  0  0  0  0
  5 12  1  0  0  0  0
M  END
$$$$

 OpenBabel12201709243D

 24 26  0  0  0  0  0  0  0  0999 V2000
    1.2953    0.2648   -0.3750 C   0  0  0  0  0  0  0  0  0  0  0  0
    2.6804    0.3066   -0.0445 O   0  0  0  0  0  0  0  0  0  0  0  0
    3.1090    1.4541    0.5623 C   0  0  0  0  0  0  0  0  0  0  0  0
    4.0886    1.3665    1.5603 C   0  0  0  0  0  0  0  0  0  0  0  0
    4.6697    0.2144    2.0123 O   0  0  0  0  0  0  0  0  0  0  0  0
    5.5836    0.5640    2.9537 C   0  0  0  0  0  0  0  0  0  0  0  0
    5.5873    1.9255    3.1420 C   0  0  0  0  0  0  0  0  0  0  0  0
    4.6282    2.4571    2.2381 C   0  0  0  0  0  0  0  0  0  0  0  0
    4.1792    3.7499    1.9136 C   0  0  0  0  0  0  0  0  0  0  0  0
    3.2482    3.8972    0.8763 C   0  0  0  0  0  0  0  0  0  0  0  0
    2.8355    5.2244    0.4393 C   0  0  0  0  0  0  0  0  0  0  0  0
    2.0268    5.3594   -0.6146 C   0  0  0  0  0  0  0  0  0  0  0  0
    1.5030    4.2035   -1.3531 C   0  0  0  0  0  0  0  0  0  0  0  0
    0.7749    4.3516   -2.3264 O   0  0  0  0  0  0  0  0  0  0  0  0
    1.8642    2.9536   -0.8780 O   0  0  0  0  0  0  0  0  0  0  0  0
    2.7398    2.7677    0.2200 C   0  0  0  0  0  0  0  0  0  0  0  0
    1.0086   -0.7861   -0.4822 H   0  0  0  0  0  0  0  0  0  0  0  0
    1.1136    0.7423   -1.3418 H   0  0  0  0  0  0  0  0  0  0  0  0
    0.6679    0.7048    0.4083 H   0  0  0  0  0  0  0  0  0  0  0  0
    6.1447   -0.2537    3.3840 H   0  0  0  0  0  0  0  0  0  0  0  0
    6.2200    2.4707    3.8283 H   0  0  0  0  0  0  0  0  0  0  0  0
    4.5887    4.6122    2.4316 H   0  0  0  0  0  0  0  0  0  0  0  0
    3.2124    6.0960    0.9669 H   0  0  0  0  0  0  0  0  0  0  0  0
    1.7192    6.3319   -0.9817 H   0  0  0  0  0  0  0  0  0  0  0  0
  1  2  1  0  0  0  0
  1 17  1  0  0  0  0
  1 18  1  0  0  0  0
  1 19  1  0  0  0  0
  2  3  1  0  0  0  0
  3  4  2  0  0  0  0
  3 16  1  0  0  0  0
  4  5  1  0  0  0  0
  4  8  1  0  0  0  0
  5  6  1  0  0  0  0
  6  7  2  0  0  0  0
  6 20  1  0  0  0  0
  7  8  1  0  0  0  0
  7 21  1  0  0  0  0
  8  9  2  0  0  0  0
  9 10  1  0  0  0  0
  9 22  1  0  0  0  0
 10 11  1  0  0  0  0
 10 16  2  0  0  0  0
 11 12  2  0  0  0  0
 11 23  1  0  0  0  0
 12 13  1  0  0  0  0
 12 24  1  0  0  0  0
 13 14  2  0  0  0  0
 13 15  1  0  0  0  0
 15 16  1  0  0  0  0
M  END
$$$$

 OpenBabel12201709243D

  8  7  0  0  0  0  0  0  0  0999 V2000
    1.0583   -0.0592    0.0577 C   0  0  0  0  0  0  0  0  0  0  0  0
    2.5549   -0.0126    0.1160 C   0  0  0  0  0  0  0  0  0  0  0  0
    3.1930    0.6376    0.9279 O   0  0  0  0  0  0  0  0  0  0  0  0
    3.1396   -0.7741   -0.8351 O   0  0  0  0  0  0  0  0  0  0  0  0
    0.6451    0.5738    0.8483 H   0  0  0  0  0  0  0  0  0  0  0  0
    0.7128   -1.0837    0.2165 H   0  0  0  0  0  0  0  0  0  0  0  0
    0.7128    0.3198   -0.9073 H   0  0  0  0  0  0  0  0  0  0  0  0
    2.5026   -1.2361   -1.4121 H   0  0  0  0  0  0  0  0  0  0  0  0
  1  2  1  0  0  0  0
  1  5  1  0  0  0  0
  1  6  1  0  0  0  0
  1  7  1  0  0  0  0
  2  3  2  0  0  0  0
  2  4  1  0  0  0  0
  4  8  1  0  0  0  0
M  END
$$$$

 OpenBabel12201709243D

  6  5  0  0  0  0  0  0  0  0999 V2000
    1.0499   -0.0737    0.0094 N   0  0  0  0  0  0  0  0  0  0  0  0
    2.4909   -0.0820    0.0247 N   0  0  0  0  0  0  0  0  0  0  0  0
    0.6768    0.3966    0.8416 H   0  0  0  0  0  0  0  0  0  0  0  0
    0.6768   -1.0277    0.0682 H   0  0  0  0  0  0  0  0  0  0  0  0
    2.8640    0.8720   -0.0341 H   0  0  0  0  0  0  0  0  0  0  0  0
    2.8640   -0.5523   -0.8074 H   0  0  0  0  0  0  0  0  0  0  0  0
  1  2  1  0  0  0  0
  1  3  1  0  0  0  0
  1  4  1  0  0  0  0
  2  5  1  0  0  0  0
  2  6  1  0  0  0  0
M  END
$$$$

 OpenBabel12201709243D

 10  9  0  0  0  0  0  0  0  0999 V2000
    1.0715    0.0158    0.2545 O   0  0  0  0  0  0  0  0  0  0  0  0
    2.4604   -0.0828   -0.0630 C   0  0  0  0  0  0  0  0  0  0  0  0
    3.1531    0.7995    0.8221 O   0  0  0  0  0  0  0  0  0  0  0  0
    3.0239   -1.5596   -0.0545 C   0  0  0  0  0  0  0  0  0  0  0  0
    1.6897   -2.7499   -0.2731 Cl  0  0  0  0  0  0  0  0  0  0  0  0
    4.1984   -1.7903   -1.3865 Cl  0  0  0  0  0  0  0  0  0  0  0  0
    3.8413   -1.9328    1.5036 Cl  0  0  0  0  0  0  0  0  0  0  0  0
    0.6056   -0.7359   -0.1704 H   0  0  0  0  0  0  0  0  0  0  0  0
    2.5699    0.3508   -1.0625 H   0  0  0  0  0  0  0  0  0  0  0  0
    3.3365    0.3025    1.6396 H   0  0  0  0  0  0  0  0  0  0  0  0
  1  2  1  0  0  0  0
  1  8  1  0  0  0  0
  2  3  1  0  0  0  0
  2  4  1  0  0  0  0
  2  9  1  0  0  0  0
  3 10  1  0  0  0  0
  4  5  1  0  0  0  0
  4  6  1  0  0  0  0
  4  7  1  0  0  0  0
M  END
$$$$

 OpenBabel12201709243D

 62 63  0  0  1  0  0  0  0  0999 V2000
    5.8616   -1.8048   -1.9488 C   0  0  0  0  0  0  0  0  0  0  0  0
    4.9961   -0.9895   -1.1686 O   0  0  0  0  0  0  0  0  0  0  0  0
    3.6245   -1.4159   -1.1438 C   0  0  3  0  0  0  0  0  0  0  0  0
    3.4662   -2.8507   -0.6091 C   0  0  0  0  0  0  0  0  0  0  0  0
    2.7554   -0.3858   -0.3433 C   0  0  3  0  0  0  0  0  0  0  0  0
    1.3666   -0.7734   -0.5158 O   0  0  0  0  0  0  0  0  0  0  0  0
    3.0986   -0.5170    1.1558 C   0  0  0  0  0  0  0  0  0  0  0  0
    2.3145   -1.0171    1.9603 O   0  0  0  0  0  0  0  0  0  0  0  0
    4.3587   -0.1043    1.4421 O   0  0  0  0  0  0  0  0  0  0  0  0
    4.8011   -0.3131    2.7829 C   0  0  0  0  0  0  0  0  0  0  0  0
    4.5533    0.9074    3.5927 C   0  0  0  0  0  0  0  0  0  0  0  0
    3.5910    1.0844    4.5003 C   0  0  0  0  0  0  0  0  0  0  0  0
    3.7595    2.3772    5.2156 C   0  0  0  0  0  0  0  0  0  0  0  0
    5.0164    2.9485    4.7103 N   0  0  3  0  0  0  0  0  0  0  0  0
    4.8906    4.2830    4.1294 C   0  0  0  0  0  0  0  0  0  0  0  0
    5.1863    4.1983    2.6394 C   0  0  0  0  0  0  0  0  0  0  0  0
    5.8737    2.8609    2.4221 C   0  0  3  0  0  0  0  0  0  0  0  0
    7.3092    2.9882    2.4957 O   0  0  0  0  0  0  0  0  0  0  0  0
    8.0499    3.5505    1.5362 C   0  0  0  0  0  0  0  0  0  0  0  0
    7.6453    4.0109    0.4831 O   0  0  0  0  0  0  0  0  0  0  0  0
    9.4916    3.4760    1.9318 C   0  0  0  0  0  0  0  0  0  0  0  0
    9.9657    3.3136    3.1885 C   0  0  0  0  0  0  0  0  0  0  0  0
    9.2596    3.1998    4.5061 C   0  0  0  0  0  0  0  0  0  0  0  0
   10.4736    3.5834    0.8007 C   0  0  0  0  0  0  0  0  0  0  0  0
    5.5390    2.0246    3.6677 C   0  0  3  0  0  0  0  0  0  0  0  0
    2.9073    1.1081   -0.8144 C   0  0  0  0  0  0  0  0  0  0  0  0
    2.4253    1.2948   -2.2640 C   0  0  0  0  0  0  0  0  0  0  0  0
    2.1011    2.0816    0.0665 C   0  0  0  0  0  0  0  0  0  0  0  0
    4.2643    1.5710   -0.7841 O   0  0  0  0  0  0  0  0  0  0  0  0
    6.7954   -1.2575   -2.1047 H   0  0  0  0  0  0  0  0  0  0  0  0
    5.4212   -2.0332   -2.9238 H   0  0  0  0  0  0  0  0  0  0  0  0
    6.1034   -2.7255   -1.4106 H   0  0  0  0  0  0  0  0  0  0  0  0
    3.2618   -1.4283   -2.1795 H   0  0  0  0  0  0  0  0  0  0  0  0
    3.7968   -2.9346    0.4310 H   0  0  0  0  0  0  0  0  0  0  0  0
    4.0689   -3.5635   -1.1794 H   0  0  0  0  0  0  0  0  0  0  0  0
    2.4264   -3.1854   -0.6753 H   0  0  0  0  0  0  0  0  0  0  0  0
    1.1653   -1.4181    0.1929 H   0  0  0  0  0  0  0  0  0  0  0  0
    5.8781   -0.5225    2.7412 H   0  0  0  0  0  0  0  0  0  0  0  0
    4.3432   -1.2045    3.2263 H   0  0  0  0  0  0  0  0  0  0  0  0
    2.8132    0.3689    4.7336 H   0  0  0  0  0  0  0  0  0  0  0  0
    3.8583    2.2050    6.2928 H   0  0  0  0  0  0  0  0  0  0  0  0
    2.8827    3.0096    5.0454 H   0  0  0  0  0  0  0  0  0  0  0  0
    5.6331    4.9303    4.6110 H   0  0  0  0  0  0  0  0  0  0  0  0
    3.9175    4.7567    4.3060 H   0  0  0  0  0  0  0  0  0  0  0  0
    5.7974    5.0513    2.3235 H   0  0  0  0  0  0  0  0  0  0  0  0
    4.2430    4.2282    2.0831 H   0  0  0  0  0  0  0  0  0  0  0  0
    5.5971    2.3946    1.4730 H   0  0  0  0  0  0  0  0  0  0  0  0
   11.0480    3.2548    3.3030 H   0  0  0  0  0  0  0  0  0  0  0  0
    8.1901    3.4038    4.4850 H   0  0  0  0  0  0  0  0  0  0  0  0
    9.6876    3.9197    5.2100 H   0  0  0  0  0  0  0  0  0  0  0  0
    9.4077    2.1961    4.9195 H   0  0  0  0  0  0  0  0  0  0  0  0
   10.0099    3.8495   -0.1533 H   0  0  0  0  0  0  0  0  0  0  0  0
   10.9867    2.6222    0.6560 H   0  0  0  0  0  0  0  0  0  0  0  0
   11.2315    4.3444    1.0173 H   0  0  0  0  0  0  0  0  0  0  0  0
    6.4626    1.5849    4.0713 H   0  0  0  0  0  0  0  0  0  0  0  0
    1.3818    0.9911   -2.3939 H   0  0  0  0  0  0  0  0  0  0  0  0
    3.0462    0.7264   -2.9644 H   0  0  0  0  0  0  0  0  0  0  0  0
    2.5140    2.3442   -2.5684 H   0  0  0  0  0  0  0  0  0  0  0  0
    1.0223    1.9756   -0.0866 H   0  0  0  0  0  0  0  0  0  0  0  0
    2.3804    3.1203   -0.1507 H   0  0  0  0  0  0  0  0  0  0  0  0
    2.3098    1.9407    1.1318 H   0  0  0  0  0  0  0  0  0  0  0  0
    4.8395    0.8382   -1.0882 H   0  0  0  0  0  0  0  0  0  0  0  0
  1  2  1  0  0  0  0
  1 30  1  0  0  0  0
  1 31  1  0  0  0  0
  1 32  1  0  0  0  0
  2  3  1  0  0  0  0
  3  4  1  0  0  0  0
  3  5  1  0  0  0  0
  3 33  1  0  0  0  0
  4 34  1  0  0  0  0
  4 35  1  0  0  0  0
  4 36  1  0  0  0  0
  5  6  1  0  0  0  0
  5  7  1  0  0  0  0
  5 26  1  0  0  0  0
  6 37  1  0  0  0  0
  7  8  2  0  0  0  0
  7  9  1  0  0  0  0
  9 10  1  0  0  0  0
 10 11  1  0  0  0  0
 10 38  1  0  0  0  0
 10 39  1  0  0  0  0
 11 12  2  0  0  0  0
 11 25  1  0  0  0  0
 12 13  1  0  0  0  0
 12 40  1  0  0  0  0
 13 14  1  0  0  0  0
 13 41  1  0  0  0  0
 13 42  1  0  0  0  0
 14 15  1  0  0  0  0
 14 25  1  0  0  0  0
 15 16  1  0  0  0  0
 15 43  1  0  0  0  0
 15 44  1  0  0  0  0
 16 17  1  0  0  0  0
 16 45  1  0  0  0  0
 16 46  1  0  0  0  0
 17 18  1  0  0  0  0
 17 25  1  0  0  0  0
 17 47  1  0  0  0  0
 18 19  1  0  0  0  0
 19 20  2  0  0  0  0
 19 21  1  0  0  0  0
 21 22  2  3  0  0  0
 21 24  1  0  0  0  0
 22 23  1  0  0  0  0
 22 48  1  0  0  0  0
 23 49  1  0  0  0  0
 23 50  1  0  0  0  0
 23 51  1  0  0  0  0
 24 52  1  0  0  0  0
 24 53  1  0  0  0  0
 24 54  1  0  0  0  0
 25 55  1  0  0  0  0
 26 27  1  0  0  0  0
 26 28  1  0  0  0  0
 26 29  1  0  0  0  0
 27 56  1  0  0  0  0
 27 57  1  0  0  0  0
 27 58  1  0  0  0  0
 28 59  1  0  0  0  0
 28 60  1  0  0  0  0
 28 61  1  0  0  0  0
 29 62  1  0  0  0  0
M  END
$$$$

 OpenBabel12201709243D

 46 48  0  0  1  0  0  0  0  0999 V2000
    0.9242   -0.1355   -0.0017 C   0  0  0  0  0  0  0  0  0  0  0  0
    2.4457   -0.0917   -0.0303 C   0  0  3  0  0  0  0  0  0  0  0  0
    2.9827    1.2016    0.5608 C   0  0  0  0  0  0  0  0  0  0  0  0
    4.4877    1.1273    0.6276 C   0  0  0  0  0  0  0  0  0  0  0  0
    5.2863    2.2842    0.5966 C   0  0  0  0  0  0  0  0  0  0  0  0
    4.5923    3.8657    0.5374 Cl  0  0  0  0  0  0  0  0  0  0  0  0
    6.6799    2.1926    0.6142 C   0  0  0  0  0  0  0  0  0  0  0  0
    7.2947    0.9453    0.7259 C   0  0  0  0  0  0  0  0  0  0  0  0
    8.7778    0.9060    0.6810 C   0  0  0  0  0  0  0  0  0  0  0  0
    9.4054    1.6186   -0.0971 O   0  0  0  0  0  0  0  0  0  0  0  0
    9.4092   -0.0167    1.4725 N   0  0  0  0  0  0  0  0  0  0  0  0
   10.8748   -0.1336    1.5414 C   0  0  3  0  0  0  0  0  0  0  0  0
   11.3481   -0.7192    2.8826 C   0  0  0  0  0  0  0  0  0  0  0  0
   10.8256    0.0700    4.0632 C   0  0  0  0  0  0  0  0  0  0  0  0
    9.9607   -0.5356    4.9841 C   0  0  0  0  0  0  0  0  0  0  0  0
    9.3861    0.2139    6.0108 C   0  0  0  0  0  0  0  0  0  0  0  0
    9.6779    1.5712    6.1322 C   0  0  0  0  0  0  0  0  0  0  0  0
   10.5689    2.1739    5.2470 C   0  0  0  0  0  0  0  0  0  0  0  0
   11.1487    1.4255    4.2221 C   0  0  0  0  0  0  0  0  0  0  0  0
   11.3760   -0.9859    0.3675 C   0  0  0  0  0  0  0  0  0  0  0  0
   12.0739   -1.9842    0.4743 O   0  0  0  0  0  0  0  0  0  0  0  0
   11.0114   -0.4906   -0.8462 O   0  0  0  0  0  0  0  0  0  0  0  0
    6.5134   -0.2149    0.8287 C   0  0  0  0  0  0  0  0  0  0  0  0
    7.1280   -1.4220    1.0211 O   0  0  0  0  0  0  0  0  0  0  0  0
    5.1086   -0.1357    0.7632 C   0  0  0  0  0  0  0  0  0  0  0  0
    4.2727   -1.3831    0.8230 C   0  0  0  0  0  0  0  0  0  0  0  0
    4.7371   -2.5036    0.9653 O   0  0  0  0  0  0  0  0  0  0  0  0
    2.9281   -1.2023    0.7359 O   0  0  0  0  0  0  0  0  0  0  0  0
    0.4920    0.6566   -0.6202 H   0  0  0  0  0  0  0  0  0  0  0  0
    0.5456   -0.0297    1.0210 H   0  0  0  0  0  0  0  0  0  0  0  0
    0.5635   -1.1026   -0.3698 H   0  0  0  0  0  0  0  0  0  0  0  0
    2.7809   -0.2225   -1.0680 H   0  0  0  0  0  0  0  0  0  0  0  0
    2.6024    1.3590    1.5773 H   0  0  0  0  0  0  0  0  0  0  0  0
    2.6492    2.0310   -0.0720 H   0  0  0  0  0  0  0  0  0  0  0  0
    7.2848    3.0969    0.5576 H   0  0  0  0  0  0  0  0  0  0  0  0
    8.8503   -0.6000    2.0926 H   0  0  0  0  0  0  0  0  0  0  0  0
   11.3119    0.8637    1.4053 H   0  0  0  0  0  0  0  0  0  0  0  0
   12.4447   -0.7384    2.9255 H   0  0  0  0  0  0  0  0  0  0  0  0
   11.0228   -1.7648    2.9650 H   0  0  0  0  0  0  0  0  0  0  0  0
    9.7148   -1.5922    4.9018 H   0  0  0  0  0  0  0  0  0  0  0  0
    8.7027   -0.2596    6.7105 H   0  0  0  0  0  0  0  0  0  0  0  0
    9.2145    2.1583    6.9208 H   0  0  0  0  0  0  0  0  0  0  0  0
   10.8064    3.2296    5.3493 H   0  0  0  0  0  0  0  0  0  0  0  0
   11.8376    1.9170    3.5388 H   0  0  0  0  0  0  0  0  0  0  0  0
   10.5369    0.3702   -0.7723 H   0  0  0  0  0  0  0  0  0  0  0  0
    7.7555   -1.5848    0.2913 H   0  0  0  0  0  0  0  0  0  0  0  0
  1  2  1  0  0  0  0
  1 29  1  0  0  0  0
  1 30  1  0  0  0  0
  1 31  1  0  0  0  0
  2  3  1  0  0  0  0
  2 28  1  0  0  0  0
  2 32  1  0  0  0  0
  3  4  1  0  0  0  0
  3 33  1  0  0  0  0
  3 34  1  0  0  0  0
  4  5  2  0  0  0  0
  4 25  1  0  0  0  0
  5  6  1  0  0  0  0
  5  7  1  0  0  0  0
  7  8  2  0  0  0  0
  7 35  1  0  0  0  0
  8  9  1  0  0  0  0
  8 23  1  0  0  0  0
  9 10  2  0  0  0  0
  9 11  1  0  0  0  0
 11 12  1  0  0  0  0
 11 36  1  0  0  0  0
 12 13  1  0  0  0  0
 12 20  1  0  0  0  0
 12 37  1  0  0  0  0
 13 14  1  0  0  0  0
 13 38  1  0  0  0  0
 13 39  1  0  0  0  0
 14 15  2  0  0  0  0
 14 19  1  0  0  0  0
 15 16  1  0  0  0  0
 15 40  1  0  0  0  0
 16 17  2  0  0  0  0
 16 41  1  0  0  0  0
 17 18  1  0  0  0  0
 17 42  1  0  0  0  0
 18 19  2  0  0  0  0
 18 43  1  0  0  0  0
 19 44  1  0  0  0  0
 20 21  2  0  0  0  0
 20 22  1  0  0  0  0
 22 45  1  0  0  0  0
 23 24  1  0  0  0  0
 23 25  2  0  0  0  0
 24 46  1  0  0  0  0
 25 26  1  0  0  0  0
 26 27  2  0  0  0  0
 26 28  1  0  0  0  0
M  END
$$$$

 OpenBabel12201709243D

 21 22  0  0  0  0  0  0  0  0999 V2000
    1.0916   -1.6712   -0.6811 C   0  0  0  0  0  0  0  0  0  0  0  0
    2.3668   -1.3656   -0.4156 C   0  0  0  0  0  0  0  0  0  0  0  0
    3.1364   -0.4764   -1.3292 C   0  0  0  0  0  0  0  0  0  0  0  0
    2.5873    0.3109   -2.0912 O   0  0  0  0  0  0  0  0  0  0  0  0
    4.6187   -0.5553   -1.2616 C   0  0  0  0  0  0  0  0  0  0  0  0
    5.3716    0.6008   -1.5675 C   0  0  0  0  0  0  0  0  0  0  0  0
    6.7709    0.5706   -1.5335 C   0  0  0  0  0  0  0  0  0  0  0  0
    7.3764   -0.6232   -1.2049 C   0  0  0  0  0  0  0  0  0  0  0  0
    8.7163   -0.8448   -1.1306 O   0  0  0  0  0  0  0  0  0  0  0  0
    8.7438   -2.2450   -0.7828 C   0  0  0  0  0  0  0  0  0  0  0  0
    7.4308   -2.8245   -0.6363 O   0  0  0  0  0  0  0  0  0  0  0  0
    6.6449   -1.7518   -0.9203 C   0  0  0  0  0  0  0  0  0  0  0  0
    5.2679   -1.7565   -0.9431 C   0  0  0  0  0  0  0  0  0  0  0  0
    0.5271   -2.3205   -0.0202 H   0  0  0  0  0  0  0  0  0  0  0  0
    0.5880   -1.2878   -1.5643 H   0  0  0  0  0  0  0  0  0  0  0  0
    2.8614   -1.7559    0.4658 H   0  0  0  0  0  0  0  0  0  0  0  0
    4.8617    1.5263   -1.8341 H   0  0  0  0  0  0  0  0  0  0  0  0
    7.3586    1.4525   -1.7637 H   0  0  0  0  0  0  0  0  0  0  0  0
    9.2842   -2.3619    0.1635 H   0  0  0  0  0  0  0  0  0  0  0  0
    9.2812   -2.7922   -1.5660 H   0  0  0  0  0  0  0  0  0  0  0  0
    4.7294   -2.6755   -0.7436 H   0  0  0  0  0  0  0  0  0  0  0  0
  1  2  2  0  0  0  0
  1 14  1  0  0  0  0
  1 15  1  0  0  0  0
  2  3  1  0  0  0  0
  2 16  1  0  0  0  0
  3  4  2  0  0  0  0
  3  5  1  0  0  0  0
  5  6  2  0  0  0  0
  5 13  1  0  0  0  0
  6  7  1  0  0  0  0
  6 17  1  0  0  0  0
  7  8  2  0  0  0  0
  7 18  1  0  0  0  0
  8  9  1  0  0  0  0
  8 12  1  0  0  0  0
  9 10  1  0  0  0  0
 10 11  1  0  0  0  0
 10 19  1  0  0  0  0
 10 20  1  0  0  0  0
 11 12  1  0  0  0  0
 12 13  2  0  0  0  0
 13 21  1  0  0  0  0
M  END
$$$$

 OpenBabel12201709243D

 38 38  0  0  0  0  0  0  0  0999 V2000
    1.6251    3.3179   -4.3522 O   0  0  0  0  0  0  0  0  0  0  0  0
    2.9672    3.2008   -4.2297 C   0  0  0  0  0  0  0  0  0  0  0  0
    3.7391    3.6810   -5.0433 O   0  0  0  0  0  0  0  0  0  0  0  0
    3.3633    2.4228   -2.9950 C   0  0  0  0  0  0  0  0  0  0  0  0
    4.8814    2.3079   -2.8696 C   0  0  0  0  0  0  0  0  0  0  0  0
    5.2990    1.5380   -1.6115 C   0  0  0  0  0  0  0  0  0  0  0  0
    6.7991    1.4230   -1.4805 C   0  0  0  0  0  0  0  0  0  0  0  0
    7.6015    2.5572   -1.3285 C   0  0  0  0  0  0  0  0  0  0  0  0
    9.0000    2.4506   -1.2600 C   0  0  0  0  0  0  0  0  0  0  0  0
    9.6502    1.2112   -1.3440 C   0  0  0  0  0  0  0  0  0  0  0  0
    8.8216    0.0805   -1.4360 C   0  0  0  0  0  0  0  0  0  0  0  0
    7.4257    0.1762   -1.5073 C   0  0  0  0  0  0  0  0  0  0  0  0
   11.0386    1.0776   -1.3610 N   0  0  0  0  0  0  0  0  0  0  0  0
   11.9320    2.1299   -0.8362 C   0  0  0  0  0  0  0  0  0  0  0  0
   11.8732    2.2723    0.6876 C   0  0  0  0  0  0  0  0  0  0  0  0
   12.3350    0.7658    1.5279 Cl  0  0  0  0  0  0  0  0  0  0  0  0
   11.6219    0.1897   -2.3936 C   0  0  0  0  0  0  0  0  0  0  0  0
   11.2977    0.5981   -3.8371 C   0  0  0  0  0  0  0  0  0  0  0  0
   11.9803    2.1878   -4.2731 Cl  0  0  0  0  0  0  0  0  0  0  0  0
    1.1209    2.8888   -3.6373 H   0  0  0  0  0  0  0  0  0  0  0  0
    2.9177    1.4245   -3.0610 H   0  0  0  0  0  0  0  0  0  0  0  0
    2.9572    2.9417   -2.1183 H   0  0  0  0  0  0  0  0  0  0  0  0
    5.3160    3.3154   -2.8587 H   0  0  0  0  0  0  0  0  0  0  0  0
    5.2880    1.8089   -3.7597 H   0  0  0  0  0  0  0  0  0  0  0  0
    4.8498    0.5367   -1.6389 H   0  0  0  0  0  0  0  0  0  0  0  0
    4.9039    2.0288   -0.7136 H   0  0  0  0  0  0  0  0  0  0  0  0
    7.1508    3.5465   -1.2833 H   0  0  0  0  0  0  0  0  0  0  0  0
    9.5637    3.3745   -1.1872 H   0  0  0  0  0  0  0  0  0  0  0  0
    9.2588   -0.9148   -1.4369 H   0  0  0  0  0  0  0  0  0  0  0  0
    6.8411   -0.7368   -1.5887 H   0  0  0  0  0  0  0  0  0  0  0  0
   11.7227    3.0944   -1.3124 H   0  0  0  0  0  0  0  0  0  0  0  0
   12.9722    1.8999   -1.0997 H   0  0  0  0  0  0  0  0  0  0  0  0
   10.8790    2.5607    1.0379 H   0  0  0  0  0  0  0  0  0  0  0  0
   12.5837    3.0403    1.0102 H   0  0  0  0  0  0  0  0  0  0  0  0
   11.2848   -0.8403   -2.2299 H   0  0  0  0  0  0  0  0  0  0  0  0
   12.7115    0.1410   -2.2734 H   0  0  0  0  0  0  0  0  0  0  0  0
   10.2210    0.6338   -4.0254 H   0  0  0  0  0  0  0  0  0  0  0  0
   11.7335   -0.1299   -4.5285 H   0  0  0  0  0  0  0  0  0  0  0  0
  1  2  1  0  0  0  0
  1 20  1  0  0  0  0
  2  3  2  0  0  0  0
  2  4  1  0  0  0  0
  4  5  1  0  0  0  0
  4 21  1  0  0  0  0
  4 22  1  0  0  0  0
  5  6  1  0  0  0  0
  5 23  1  0  0  0  0
  5 24  1  0  0  0  0
  6  7  1  0  0  0  0
  6 25  1  0  0  0  0
  6 26  1  0  0  0  0
  7  8  2  0  0  0  0
  7 12  1  0  0  0  0
  8  9  1  0  0  0  0
  8 27  1  0  0  0  0
  9 10  2  0  0  0  0
  9 28  1  0  0  0  0
 10 11  1  0  0  0  0
 10 13  1  0  0  0  0
 11 12  2  0  0  0  0
 11 29  1  0  0  0  0
 12 30  1  0  0  0  0
 13 14  1  0  0  0  0
 13 17  1  0  0  0  0
 14 15  1  0  0  0  0
 14 31  1  0  0  0  0
 14 32  1  0  0  0  0
 15 16  1  0  0  0  0
 15 33  1  0  0  0  0
 15 34  1  0  0  0  0
 17 18  1  0  0  0  0
 17 35  1  0  0  0  0
 17 36  1  0  0  0  0
 18 19  1  0  0  0  0
 18 37  1  0  0  0  0
 18 38  1  0  0  0  0
M  END
$$$$

 OpenBabel12201709243D

 12 11  0  0  0  0  0  0  0  0999 V2000
    0.9306    0.0620   -0.0151 C   0  0  0  0  0  0  0  0  0  0  0  0
    2.3936    0.0732    0.0005 N   0  0  0  0  0  0  0  0  0  0  0  0
    2.8736   -0.2259   -1.3363 N   0  0  0  0  0  0  0  0  0  0  0  0
    4.3366   -0.2160   -1.3206 C   0  0  0  0  0  0  0  0  0  0  0  0
    0.5562    0.2788    0.9904 H   0  0  0  0  0  0  0  0  0  0  0  0
    0.5389   -0.9152   -0.3180 H   0  0  0  0  0  0  0  0  0  0  0  0
    0.5346    0.8312   -0.6869 H   0  0  0  0  0  0  0  0  0  0  0  0
    2.7031   -0.6463    0.6621 H   0  0  0  0  0  0  0  0  0  0  0  0
    2.5647    0.4940   -1.9977 H   0  0  0  0  0  0  0  0  0  0  0  0
    4.7318   -0.9858   -0.6491 H   0  0  0  0  0  0  0  0  0  0  0  0
    4.7291    0.7607   -1.0172 H   0  0  0  0  0  0  0  0  0  0  0  0
    4.7109   -0.4326   -2.3260 H   0  0  0  0  0  0  0  0  0  0  0  0
  1  2  1  0  0  0  0
  1  5  1  0  0  0  0
  1  6  1  0  0  0  0
  1  7  1  0  0  0  0
  2  3  1  0  0  0  0
  2  8  1  0  0  0  0
  3  4  1  0  0  0  0
  3  9  1  0  0  0  0
  4 10  1  0  0  0  0
  4 11  1  0  0  0  0
  4 12  1  0  0  0  0
M  END
$$$$

 OpenBabel12201709243D

 26 29  0  0  1  0  0  0  0  0999 V2000
    1.2247    0.1136   -0.5530 Cl  0  0  0  0  0  0  0  0  0  0  0  0
    2.8092   -0.3120   -0.1598 C   0  0  0  0  0  0  0  0  0  0  0  0
    3.6338   -1.1828   -0.7714 C   0  0  0  0  0  0  0  0  0  0  0  0
    3.2960   -2.1192   -2.1407 Cl  0  0  0  0  0  0  0  0  0  0  0  0
    4.9631   -1.2112    0.0164 C   0  0  3  0  0  0  0  0  0  0  0  0
    5.9674   -2.6238   -0.2357 Cl  0  0  0  0  0  0  0  0  0  0  0  0
    5.6789    0.1294   -0.3241 C   0  0  3  0  0  0  0  0  0  0  0  0
    6.9723    0.7474    0.3167 C   0  0  3  0  0  0  0  0  0  0  0  0
    6.7844    2.1760   -0.2343 C   0  0  0  0  0  0  0  0  0  0  0  0
    5.4578    2.4049    0.5406 C   0  0  3  0  0  0  0  0  0  0  0  0
    5.9927    2.1563    1.9056 C   0  0  0  0  0  0  0  0  0  0  0  0
    6.9077    1.1959    1.7687 C   0  0  0  0  0  0  0  0  0  0  0  0
    4.6085    1.2044    0.0850 C   0  0  3  0  0  0  0  0  0  0  0  0
    3.6213    0.3215    0.9645 C   0  0  3  0  0  0  0  0  0  0  0  0
    2.7337    1.1719    2.1980 Cl  0  0  0  0  0  0  0  0  0  0  0  0
    4.3442   -1.0177    1.4178 C   0  0  0  0  0  0  0  0  0  0  0  0
    5.4605   -1.0480    2.7963 Cl  0  0  0  0  0  0  0  0  0  0  0  0
    3.1756   -2.3700    1.9082 Cl  0  0  0  0  0  0  0  0  0  0  0  0
    5.8240    0.1527   -1.4176 H   0  0  0  0  0  0  0  0  0  0  0  0
    7.9125    0.2678    0.0427 H   0  0  0  0  0  0  0  0  0  0  0  0
    6.6825    2.2091   -1.3221 H   0  0  0  0  0  0  0  0  0  0  0  0
    7.5945    2.8668    0.0528 H   0  0  0  0  0  0  0  0  0  0  0  0
    5.0213    3.3892    0.3657 H   0  0  0  0  0  0  0  0  0  0  0  0
    5.6987    2.6955    2.7930 H   0  0  0  0  0  0  0  0  0  0  0  0
    7.5172    0.8189    2.5788 H   0  0  0  0  0  0  0  0  0  0  0  0
    4.0983    1.5548   -0.8289 H   0  0  0  0  0  0  0  0  0  0  0  0
  1  2  1  0  0  0  0
  2  3  2  0  0  0  0
  2 14  1  0  0  0  0
  3  4  1  0  0  0  0
  3  5  1  0  0  0  0
  5  6  1  0  0  0  0
  5  7  1  0  0  0  0
  5 16  1  0  0  0  0
  7  8  1  0  0  0  0
  7 13  1  0  0  0  0
  7 19  1  0  0  0  0
  8  9  1  0  0  0  0
  8 12  1  0  0  0  0
  8 20  1  0  0  0  0
  9 10  1  0  0  0  0
  9 21  1  0  0  0  0
  9 22  1  0  0  0  0
 10 11  1  0  0  0  0
 10 13  1  0  0  0  0
 10 23  1  0  0  0  0
 11 12  2  0  0  0  0
 11 24  1  0  0  0  0
 12 25  1  0  0  0  0
 13 14  1  0  0  0  0
 13 26  1  0  0  0  0
 14 15  1  0  0  0  0
 14 16  1  0  0  0  0
 16 17  1  0  0  0  0
 16 18  1  0  0  0  0
M  END
$$$$

 OpenBabel12201709243D

 46 48  0  0  1  0  0  0  0  0999 V2000
    0.9006    0.5557   -0.0400 C   0  0  0  0  0  0  0  0  0  0  0  0
    2.3644    0.1363   -0.0864 C   0  0  3  0  0  0  0  0  0  0  0  0
    3.2798    1.1752   -0.7339 C   0  0  0  0  0  0  0  0  0  0  0  0
    2.9907    1.9494   -1.6299 O   0  0  0  0  0  0  0  0  0  0  0  0
    4.5431    0.9581   -0.2504 O   0  0  0  0  0  0  0  0  0  0  0  0
    5.6586    1.0221   -1.1639 C   0  0  3  0  0  0  0  0  0  0  0  0
    6.3142    2.4183   -1.1347 C   0  0  0  0  0  0  0  0  0  0  0  0
    7.7867    2.1859   -0.7739 C   0  0  0  0  0  0  0  0  0  0  0  0
    7.9323    0.7940   -1.0921 N   0  0  3  0  0  0  0  0  0  0  0  0
    9.0856    0.0124   -0.7135 C   0  0  0  0  0  0  0  0  0  0  0  0
    8.5247   -1.3577   -0.9565 C   0  0  0  0  0  0  0  0  0  0  0  0
    7.1740   -1.3393   -0.9813 C   0  0  0  0  0  0  0  0  0  0  0  0
    6.3435   -2.5704   -1.2197 C   0  0  0  0  0  0  0  0  0  0  0  0
    5.5208   -2.8005   -0.0782 O   0  0  0  0  0  0  0  0  0  0  0  0
    4.2464   -3.2448   -0.3539 C   0  0  0  0  0  0  0  0  0  0  0  0
    3.9720   -4.1722   -1.0863 O   0  0  0  0  0  0  0  0  0  0  0  0
    3.2672   -2.2712    0.3545 C   0  0  3  0  0  0  0  0  0  0  0  0
    2.2374   -2.9928    1.2075 C   0  0  0  0  0  0  0  0  0  0  0  0
    4.0606   -1.4974    1.2978 O   0  0  0  0  0  0  0  0  0  0  0  0
    2.6504   -1.2834   -0.7160 C   0  0  3  0  0  0  0  0  0  0  0  0
    1.4762   -1.8688   -1.5078 C   0  0  0  0  0  0  0  0  0  0  0  0
    3.6324   -1.1245   -1.7648 O   0  0  0  0  0  0  0  0  0  0  0  0
    6.7477    0.0723   -0.6108 C   0  0  3  0  0  0  0  0  0  0  0  0
    0.7950    1.5078    0.4902 H   0  0  0  0  0  0  0  0  0  0  0  0
    0.3120   -0.1873    0.5127 H   0  0  0  0  0  0  0  0  0  0  0  0
    0.4682    0.6828   -1.0350 H   0  0  0  0  0  0  0  0  0  0  0  0
    2.6367    0.1471    0.9762 H   0  0  0  0  0  0  0  0  0  0  0  0
    5.3567    0.7610   -2.1849 H   0  0  0  0  0  0  0  0  0  0  0  0
    5.8340    3.1096   -0.4350 H   0  0  0  0  0  0  0  0  0  0  0  0
    6.2456    2.8591   -2.1380 H   0  0  0  0  0  0  0  0  0  0  0  0
    7.9652    2.3994    0.2846 H   0  0  0  0  0  0  0  0  0  0  0  0
    8.4464    2.8129   -1.3824 H   0  0  0  0  0  0  0  0  0  0  0  0
    9.3701    0.1309    0.3379 H   0  0  0  0  0  0  0  0  0  0  0  0
    9.9376    0.2173   -1.3647 H   0  0  0  0  0  0  0  0  0  0  0  0
    9.1431   -2.2301   -1.1073 H   0  0  0  0  0  0  0  0  0  0  0  0
    6.9893   -3.4488   -1.3392 H   0  0  0  0  0  0  0  0  0  0  0  0
    5.7610   -2.4671   -2.1399 H   0  0  0  0  0  0  0  0  0  0  0  0
    2.7307   -3.6647    1.9188 H   0  0  0  0  0  0  0  0  0  0  0  0
    1.5445   -3.5925    0.6129 H   0  0  0  0  0  0  0  0  0  0  0  0
    1.6648   -2.2730    1.8043 H   0  0  0  0  0  0  0  0  0  0  0  0
    4.8148   -2.0584    1.5694 H   0  0  0  0  0  0  0  0  0  0  0  0
    0.6040   -2.0874   -0.8902 H   0  0  0  0  0  0  0  0  0  0  0  0
    1.7748   -2.7864   -2.0292 H   0  0  0  0  0  0  0  0  0  0  0  0
    1.1741   -1.1754   -2.3041 H   0  0  0  0  0  0  0  0  0  0  0  0
    4.4618   -0.9081   -1.3142 H   0  0  0  0  0  0  0  0  0  0  0  0
    6.6776    0.0931    0.4907 H   0  0  0  0  0  0  0  0  0  0  0  0
  1  2  1  0  0  0  0
  1 24  1  0  0  0  0
  1 25  1  0  0  0  0
  1 26  1  0  0  0  0
  2  3  1  0  0  0  0
  2 20  1  0  0  0  0
  2 27  1  0  0  0  0
  3  4  2  0  0  0  0
  3  5  1  0  0  0  0
  5  6  1  0  0  0  0
  6  7  1  0  0  0  0
  6 23  1  0  0  0  0
  6 28  1  0  0  0  0
  7  8  1  0  0  0  0
  7 29  1  0  0  0  0
  7 30  1  0  0  0  0
  8  9  1  0  0  0  0
  8 31  1  0  0  0  0
  8 32  1  0  0  0  0
  9 10  1  0  0  0  0
  9 23  1  0  0  0  0
 10 11  1  0  0  0  0
 10 33  1  0  0  0  0
 10 34  1  0  0  0  0
 11 12  2  0  0  0  0
 11 35  1  0  0  0  0
 12 13  1  0  0  0  0
 12 23  1  0  0  0  0
 13 14  1  0  0  0  0
 13 36  1  0  0  0  0
 13 37  1  0  0  0  0
 14 15  1  0  0  0  0
 15 16  2  0  0  0  0
 15 17  1  0  0  0  0
 17 18  1  0  0  0  0
 17 19  1  0  0  0  0
 17 20  1  0  0  0  0
 18 38  1  0  0  0  0
 18 39  1  0  0  0  0
 18 40  1  0  0  0  0
 19 41  1  0  0  0  0
 20 21  1  0  0  0  0
 20 22  1  0  0  0  0
 21 42  1  0  0  0  0
 21 43  1  0  0  0  0
 21 44  1  0  0  0  0
 22 45  1  0  0  0  0
 23 46  1  0  0  0  0
M  END
$$$$

 OpenBabel12201709243D

 75 79  0  0  1  0  0  0  0  0999 V2000
    3.4617    1.7477   -0.0634 C   0  0  0  0  0  0  0  0  0  0  0  0
    2.8445    0.3828   -0.3483 C   0  0  0  0  0  0  0  0  0  0  0  0
    3.6609   -0.7989    0.2136 C   0  0  3  0  0  0  0  0  0  0  0  0
    4.8005   -1.3693   -0.7802 C   0  0  0  0  0  0  0  0  0  0  0  0
    5.2457   -2.8159   -0.5971 N   0  0  3  0  0  0  0  0  0  0  0  0
    4.3941   -3.9160   -1.1899 C   0  0  0  0  0  0  0  0  0  0  0  0
    4.7431   -5.3786   -0.8659 C   0  0  0  0  0  0  0  0  0  0  0  0
    5.6996   -5.5496    0.2659 C   0  0  0  0  0  0  0  0  0  0  0  0
    6.3034   -6.8279    0.3812 C   0  0  0  0  0  0  0  0  0  0  0  0
    7.5468   -6.9882    0.9785 C   0  0  0  0  0  0  0  0  0  0  0  0
    8.1579   -8.2080    1.0616 O   0  0  0  0  0  0  0  0  0  0  0  0
    7.4635   -9.3636    0.6459 C   0  0  0  0  0  0  0  0  0  0  0  0
    8.1909   -5.8241    1.4367 C   0  0  0  0  0  0  0  0  0  0  0  0
    9.5077   -5.7456    1.8515 O   0  0  0  0  0  0  0  0  0  0  0  0
   10.3537   -6.8948    1.6781 C   0  0  0  0  0  0  0  0  0  0  0  0
    7.4730   -4.5757    1.4766 C   0  0  0  0  0  0  0  0  0  0  0  0
    6.1614   -4.4410    0.9718 C   0  0  0  0  0  0  0  0  0  0  0  0
    5.3488   -3.1048    0.8424 C   0  0  3  0  0  0  0  0  0  0  0  0
    3.8134   -2.9733    1.4467 C   0  0  0  0  0  0  0  0  0  0  0  0
    2.8260   -2.0413    0.5546 C   0  0  3  0  0  0  0  0  0  0  0  0
    1.3495   -2.3728    0.0753 C   0  0  0  0  0  0  0  0  0  0  0  0
    0.0093   -2.2365    0.8032 C   0  0  3  0  0  0  0  0  0  0  0  0
   -1.1148   -2.5907   -0.1114 N   0  0  0  0  0  0  0  0  0  0  0  0
   -1.4520   -1.4994   -1.0571 C   0  0  0  0  0  0  0  0  0  0  0  0
   -1.8218   -0.1830   -0.3689 C   0  0  0  0  0  0  0  0  0  0  0  0
   -0.9708    0.1097    0.8455 C   0  0  0  0  0  0  0  0  0  0  0  0
   -1.0175    1.3678    1.4511 C   0  0  0  0  0  0  0  0  0  0  0  0
   -0.3014    1.6287    2.6373 C   0  0  0  0  0  0  0  0  0  0  0  0
   -0.3485    2.8496    3.2491 O   0  0  0  0  0  0  0  0  0  0  0  0
   -0.3898    3.9704    2.3703 C   0  0  0  0  0  0  0  0  0  0  0  0
    0.4110    0.5849    3.2505 C   0  0  0  0  0  0  0  0  0  0  0  0
    1.1115    0.5726    4.4230 O   0  0  0  0  0  0  0  0  0  0  0  0
    1.4420    1.8123    5.0154 C   0  0  0  0  0  0  0  0  0  0  0  0
    0.4592   -0.6604    2.6377 C   0  0  0  0  0  0  0  0  0  0  0  0
   -0.1912   -0.8987    1.4297 C   0  0  0  0  0  0  0  0  0  0  0  0
    2.9949    2.5130   -0.6948 H   0  0  0  0  0  0  0  0  0  0  0  0
    4.5382    1.7584   -0.2440 H   0  0  0  0  0  0  0  0  0  0  0  0
    3.2810    2.0421    0.9786 H   0  0  0  0  0  0  0  0  0  0  0  0
    2.6882    0.2694   -1.4257 H   0  0  0  0  0  0  0  0  0  0  0  0
    1.8532    0.4037    0.1103 H   0  0  0  0  0  0  0  0  0  0  0  0
    4.1489   -0.4506    1.1348 H   0  0  0  0  0  0  0  0  0  0  0  0
    5.6869   -0.7386   -0.6324 H   0  0  0  0  0  0  0  0  0  0  0  0
    4.5000   -1.2278   -1.8248 H   0  0  0  0  0  0  0  0  0  0  0  0
    4.2697   -3.7661   -2.2717 H   0  0  0  0  0  0  0  0  0  0  0  0
    3.3761   -3.9660   -0.8259 H   0  0  0  0  0  0  0  0  0  0  0  0
    5.1757   -5.8276   -1.7650 H   0  0  0  0  0  0  0  0  0  0  0  0
    3.8386   -5.9466   -0.6068 H   0  0  0  0  0  0  0  0  0  0  0  0
    5.8127   -7.6583   -0.1209 H   0  0  0  0  0  0  0  0  0  0  0  0
    8.0828  -10.2382    0.8282 H   0  0  0  0  0  0  0  0  0  0  0  0
    7.2496   -9.3300   -0.4315 H   0  0  0  0  0  0  0  0  0  0  0  0
    6.5324   -9.4921    1.2129 H   0  0  0  0  0  0  0  0  0  0  0  0
   11.3884   -6.6054    1.8987 H   0  0  0  0  0  0  0  0  0  0  0  0
   10.3550   -7.2748    0.6492 H   0  0  0  0  0  0  0  0  0  0  0  0
   10.0912   -7.6784    2.3978 H   0  0  0  0  0  0  0  0  0  0  0  0
    8.0245   -3.6978    1.8153 H   0  0  0  0  0  0  0  0  0  0  0  0
    5.9636   -2.3258    1.3263 H   0  0  0  0  0  0  0  0  0  0  0  0
    3.9155   -2.4811    2.4176 H   0  0  0  0  0  0  0  0  0  0  0  0
    3.3750   -3.9519    1.6181 H   0  0  0  0  0  0  0  0  0  0  0  0
    3.0237   -2.4068   -0.4286 H   0  0  0  0  0  0  0  0  0  0  0  0
    1.3691   -3.4327   -0.2400 H   0  0  0  0  0  0  0  0  0  0  0  0
    1.2426   -1.8119   -0.8672 H   0  0  0  0  0  0  0  0  0  0  0  0
   -0.0187   -3.0063    1.5874 H   0  0  0  0  0  0  0  0  0  0  0  0
   -1.9384   -2.7540    0.4647 H   0  0  0  0  0  0  0  0  0  0  0  0
   -2.2968   -1.8234   -1.6767 H   0  0  0  0  0  0  0  0  0  0  0  0
   -0.6291   -1.3378   -1.7658 H   0  0  0  0  0  0  0  0  0  0  0  0
   -2.8677   -0.2413   -0.0372 H   0  0  0  0  0  0  0  0  0  0  0  0
   -1.7488    0.6330   -1.0920 H   0  0  0  0  0  0  0  0  0  0  0  0
   -1.6417    2.1367    1.0043 H   0  0  0  0  0  0  0  0  0  0  0  0
   -0.0989    4.8523    2.9480 H   0  0  0  0  0  0  0  0  0  0  0  0
   -1.4075    4.1342    2.0035 H   0  0  0  0  0  0  0  0  0  0  0  0
    0.3164    3.8680    1.5380 H   0  0  0  0  0  0  0  0  0  0  0  0
    2.1333    1.6001    5.8362 H   0  0  0  0  0  0  0  0  0  0  0  0
    0.5557    2.2835    5.4458 H   0  0  0  0  0  0  0  0  0  0  0  0
    1.9609    2.4644    4.3072 H   0  0  0  0  0  0  0  0  0  0  0  0
    1.0265   -1.4623    3.1070 H   0  0  0  0  0  0  0  0  0  0  0  0
  1  2  1  0  0  0  0
  1 36  1  0  0  0  0
  1 37  1  0  0  0  0
  1 38  1  0  0  0  0
  2  3  1  0  0  0  0
  2 39  1  0  0  0  0
  2 40  1  0  0  0  0
  3  4  1  0  0  0  0
  3 20  1  0  0  0  0
  3 41  1  0  0  0  0
  4  5  1  0  0  0  0
  4 42  1  0  0  0  0
  4 43  1  0  0  0  0
  5  6  1  0  0  0  0
  5 18  1  0  0  0  0
  6  7  1  0  0  0  0
  6 44  1  0  0  0  0
  6 45  1  0  0  0  0
  7  8  1  0  0  0  0
  7 46  1  0  0  0  0
  7 47  1  0  0  0  0
  8  9  2  0  0  0  0
  8 17  1  0  0  0  0
  9 10  1  0  0  0  0
  9 48  1  0  0  0  0
 10 11  1  0  0  0  0
 10 13  2  0  0  0  0
 11 12  1  0  0  0  0
 12 49  1  0  0  0  0
 12 50  1  0  0  0  0
 12 51  1  0  0  0  0
 13 14  1  0  0  0  0
 13 16  1  0  0  0  0
 14 15  1  0  0  0  0
 15 52  1  0  0  0  0
 15 53  1  0  0  0  0
 15 54  1  0  0  0  0
 16 17  2  0  0  0  0
 16 55  1  0  0  0  0
 17 18  1  0  0  0  0
 18 19  1  0  0  0  0
 18 56  1  0  0  0  0
 19 20  1  0  0  0  0
 19 57  1  0  0  0  0
 19 58  1  0  0  0  0
 20 21  1  0  0  0  0
 20 59  1  0  0  0  0
 21 22  1  0  0  0  0
 21 60  1  0  0  0  0
 21 61  1  0  0  0  0
 22 23  1  0  0  0  0
 22 35  1  0  0  0  0
 22 62  1  0  0  0  0
 23 24  1  0  0  0  0
 23 63  1  0  0  0  0
 24 25  1  0  0  0  0
 24 64  1  0  0  0  0
 24 65  1  0  0  0  0
 25 26  1  0  0  0  0
 25 66  1  0  0  0  0
 25 67  1  0  0  0  0
 26 27  2  0  0  0  0
 26 35  1  0  0  0  0
 27 28  1  0  0  0  0
 27 68  1  0  0  0  0
 28 29  1  0  0  0  0
 28 31  2  0  0  0  0
 29 30  1  0  0  0  0
 30 69  1  0  0  0  0
 30 70  1  0  0  0  0
 30 71  1  0  0  0  0
 31 32  1  0  0  0  0
 31 34  1  0  0  0  0
 32 33  1  0  0  0  0
 33 72  1  0  0  0  0
 33 73  1  0  0  0  0
 33 74  1  0  0  0  0
 34 35  2  0  0  0  0
 34 75  1  0  0  0  0
M  END
$$$$

 OpenBabel12201709243D

 17 17  0  0  0  0  0  0  0  0999 V2000
    0.9442    0.0897    0.1505 C   0  0  0  0  0  0  0  0  0  0  0  0
    2.4421    0.0622    0.0161 C   0  0  0  0  0  0  0  0  0  0  0  0
    3.1422    1.2800   -0.0538 C   0  0  0  0  0  0  0  0  0  0  0  0
    4.5322    1.2918   -0.1462 C   0  0  0  0  0  0  0  0  0  0  0  0
    5.3733    2.7908   -0.2235 Cl  0  0  0  0  0  0  0  0  0  0  0  0
    5.2434    0.0984   -0.1563 C   0  0  0  0  0  0  0  0  0  0  0  0
    4.5545   -1.1143   -0.0901 C   0  0  0  0  0  0  0  0  0  0  0  0
    3.1532   -1.1506   -0.0572 C   0  0  0  0  0  0  0  0  0  0  0  0
    2.5160   -2.3861    0.1312 N   0  0  0  0  0  0  0  0  0  0  0  0
    0.5667    1.1129    0.2509 H   0  0  0  0  0  0  0  0  0  0  0  0
    0.6295   -0.4632    1.0414 H   0  0  0  0  0  0  0  0  0  0  0  0
    0.4781   -0.3505   -0.7369 H   0  0  0  0  0  0  0  0  0  0  0  0
    2.6011    2.2227   -0.0213 H   0  0  0  0  0  0  0  0  0  0  0  0
    6.3286    0.1011   -0.2014 H   0  0  0  0  0  0  0  0  0  0  0  0
    5.1246   -2.0399   -0.0659 H   0  0  0  0  0  0  0  0  0  0  0  0
    3.0396   -3.1767   -0.2315 H   0  0  0  0  0  0  0  0  0  0  0  0
    1.5475   -2.4041   -0.1701 H   0  0  0  0  0  0  0  0  0  0  0  0
  1  2  1  0  0  0  0
  1 10  1  0  0  0  0
  1 11  1  0  0  0  0
  1 12  1  0  0  0  0
  2  3  2  0  0  0  0
  2  8  1  0  0  0  0
  3  4  1  0  0  0  0
  3 13  1  0  0  0  0
  4  5  1  0  0  0  0
  4  6  2  0  0  0  0
  6  7  1  0  0  0  0
  6 14  1  0  0  0  0
  7  8  2  0  0  0  0
  7 15  1  0  0  0  0
  8  9  1  0  0  0  0
  9 16  1  0  0  0  0
  9 17  1  0  0  0  0
M  END
$$$$

 OpenBabel12201709243D

 18 18  0  0  1  0  0  0  0  0999 V2000
    1.0629    0.0509    0.1056 Cl  0  0  0  0  0  0  0  0  0  0  0  0
    2.8705   -0.0465    0.0272 C   0  0  3  0  0  0  0  0  0  0  0  0
    3.3490   -1.4693   -0.3470 C   0  0  3  0  0  0  0  0  0  0  0  0
    2.7415   -2.6573    0.8651 Cl  0  0  0  0  0  0  0  0  0  0  0  0
    2.9351   -1.8459   -1.7853 C   0  0  3  0  0  0  0  0  0  0  0  0
    3.4207   -3.5224   -2.2266 Cl  0  0  0  0  0  0  0  0  0  0  0  0
    3.4666   -0.8279   -2.8212 C   0  0  3  0  0  0  0  0  0  0  0  0
    5.2475   -0.9716   -3.0421 Cl  0  0  0  0  0  0  0  0  0  0  0  0
    3.0334    0.6017   -2.4291 C   0  0  3  0  0  0  0  0  0  0  0  0
    3.5710    1.8339   -3.6178 Cl  0  0  0  0  0  0  0  0  0  0  0  0
    3.3606    1.0128   -0.9748 C   0  0  3  0  0  0  0  0  0  0  0  0
    5.1032    1.3321   -0.6799 Cl  0  0  0  0  0  0  0  0  0  0  0  0
    3.2089    0.2063    1.0388 H   0  0  0  0  0  0  0  0  0  0  0  0
    4.4390   -1.5177   -0.2535 H   0  0  0  0  0  0  0  0  0  0  0  0
    1.8416   -1.8601   -1.8560 H   0  0  0  0  0  0  0  0  0  0  0  0
    3.0399   -1.0686   -3.8024 H   0  0  0  0  0  0  0  0  0  0  0  0
    1.9419    0.6269   -2.5312 H   0  0  0  0  0  0  0  0  0  0  0  0
    2.8730    1.9713   -0.7599 H   0  0  0  0  0  0  0  0  0  0  0  0
  1  2  1  0  0  0  0
  2  3  1  0  0  0  0
  2 11  1  0  0  0  0
  2 13  1  0  0  0  0
  3  4  1  0  0  0  0
  3  5  1  0  0  0  0
  3 14  1  0  0  0  0
  5  6  1  0  0  0  0
  5  7  1  0  0  0  0
  5 15  1  0  0  0  0
  7  8  1  0  0  0  0
  7  9  1  0  0  0  0
  7 16  1  0  0  0  0
  9 10  1  0  0  0  0
  9 11  1  0  0  0  0
  9 17  1  0  0  0  0
 11 12  1  0  0  0  0
 11 18  1  0  0  0  0
M  END
$$$$

 OpenBabel12201709243D

 29 30  0  0  1  0  0  0  0  0999 V2000
    1.1860    0.3432    0.7687 N   0  0  0  0  0  0  0  0  0  0  0  0
    2.5271    0.3042    0.5860 C   0  0  0  0  0  0  0  0  0  0  0  0
    3.2924    0.0483    1.6738 N   0  0  0  0  0  0  0  0  0  0  0  0
    4.5531   -0.0860    1.4727 C   0  0  0  0  0  0  0  0  0  0  0  0
    5.1417    0.0195    0.2553 N   0  0  0  0  0  0  0  0  0  0  0  0
    6.5785   -0.0040    0.0833 C   0  0  3  0  0  0  0  0  0  0  0  0
    7.1288    1.1679    0.7064 O   0  0  0  0  0  0  0  0  0  0  0  0
    8.4724    0.8485    1.1171 C   0  0  3  0  0  0  0  0  0  0  0  0
    9.4422    1.1814   -0.0222 C   0  0  0  0  0  0  0  0  0  0  0  0
    9.3495    2.5680   -0.3434 O   0  0  0  0  0  0  0  0  0  0  0  0
    8.4388   -0.6213    1.5154 C   0  0  3  0  0  0  0  0  0  0  0  0
    9.6957   -1.2678    1.3834 O   0  0  0  0  0  0  0  0  0  0  0  0
    7.3259   -1.2309    0.6622 C   0  0  3  0  0  0  0  0  0  0  0  0
    7.8824   -2.1003   -0.3360 O   0  0  0  0  0  0  0  0  0  0  0  0
    4.3604    0.4917   -0.7703 C   0  0  0  0  0  0  0  0  0  0  0  0
    4.8560    0.8750   -1.8284 O   0  0  0  0  0  0  0  0  0  0  0  0
    3.0105    0.5286   -0.5853 N   0  0  0  0  0  0  0  0  0  0  0  0
    0.9121    0.5793    1.7134 H   0  0  0  0  0  0  0  0  0  0  0  0
    0.7030    0.8609    0.0454 H   0  0  0  0  0  0  0  0  0  0  0  0
    5.2282   -0.3061    2.3139 H   0  0  0  0  0  0  0  0  0  0  0  0
    6.8105    0.0636   -0.9858 H   0  0  0  0  0  0  0  0  0  0  0  0
    8.7101    1.4816    1.9786 H   0  0  0  0  0  0  0  0  0  0  0  0
    9.2056    0.6239   -0.9340 H   0  0  0  0  0  0  0  0  0  0  0  0
   10.4770    0.9677    0.2592 H   0  0  0  0  0  0  0  0  0  0  0  0
    8.3990    2.7850   -0.3988 H   0  0  0  0  0  0  0  0  0  0  0  0
    8.1367   -0.6832    2.5679 H   0  0  0  0  0  0  0  0  0  0  0  0
    9.6863   -1.7715    0.5457 H   0  0  0  0  0  0  0  0  0  0  0  0
    6.6756   -1.8596    1.2818 H   0  0  0  0  0  0  0  0  0  0  0  0
    8.1022   -1.6004   -1.1415 H   0  0  0  0  0  0  0  0  0  0  0  0
  1  2  1  0  0  0  0
  1 18  1  0  0  0  0
  1 19  1  0  0  0  0
  2  3  1  0  0  0  0
  2 17  2  0  0  0  0
  3  4  2  0  0  0  0
  4  5  1  0  0  0  0
  4 20  1  0  0  0  0
  5  6  1  0  0  0  0
  5 15  1  0  0  0  0
  6  7  1  0  0  0  0
  6 13  1  0  0  0  0
  6 21  1  0  0  0  0
  7  8  1  0  0  0  0
  8  9  1  0  0  0  0
  8 11  1  0  0  0  0
  8 22  1  0  0  0  0
  9 10  1  0  0  0  0
  9 23  1  0  0  0  0
  9 24  1  0  0  0  0
 10 25  1  0  0  0  0
 11 12  1  0  0  0  0
 11 13  1  0  0  0  0
 11 26  1  0  0  0  0
 12 27  1  0  0  0  0
 13 14  1  0  0  0  0
 13 28  1  0  0  0  0
 14 29  1  0  0  0  0
 15 16  2  0  0  0  0
 15 17  1  0  0  0  0
M  END
$$$$

 OpenBabel12201709243D

 19 18  0  0  0  0  0  0  0  0999 V2000
    1.0195   -0.1039    0.1521 O   0  0  0  0  0  0  0  0  0  0  0  0
    2.4428   -0.1159    0.1124 C   0  0  0  0  0  0  0  0  0  0  0  0
    2.9657    0.9585   -0.8656 C   0  0  0  0  0  0  0  0  0  0  0  0
    2.4142    0.6460   -2.2819 C   0  0  0  0  0  0  0  0  0  0  0  0
    2.8738    1.6094   -3.2265 O   0  0  0  0  0  0  0  0  0  0  0  0
    2.4122    2.3599   -0.4970 C   0  0  0  0  0  0  0  0  0  0  0  0
    2.9336    2.9972    1.2720 Br  0  0  0  0  0  0  0  0  0  0  0  0
    4.5072    1.0139   -0.8737 C   0  0  0  0  0  0  0  0  0  0  0  0
    5.3701   -0.6626   -1.3919 Br  0  0  0  0  0  0  0  0  0  0  0  0
    0.7462   -0.8056    0.7714 H   0  0  0  0  0  0  0  0  0  0  0  0
    2.7452   -1.1210   -0.1988 H   0  0  0  0  0  0  0  0  0  0  0  0
    2.8176    0.0425    1.1278 H   0  0  0  0  0  0  0  0  0  0  0  0
    1.3181    0.6462   -2.2972 H   0  0  0  0  0  0  0  0  0  0  0  0
    2.7299   -0.3426   -2.6323 H   0  0  0  0  0  0  0  0  0  0  0  0
    2.1038    2.1372   -3.5050 H   0  0  0  0  0  0  0  0  0  0  0  0
    1.3164    2.3840   -0.5035 H   0  0  0  0  0  0  0  0  0  0  0  0
    2.7687    3.1323   -1.1857 H   0  0  0  0  0  0  0  0  0  0  0  0
    4.9178    1.2206    0.1175 H   0  0  0  0  0  0  0  0  0  0  0  0
    4.8921    1.7673   -1.5679 H   0  0  0  0  0  0  0  0  0  0  0  0
  1  2  1  0  0  0  0
  1 10  1  0  0  0  0
  2  3  1  0  0  0  0
  2 11  1  0  0  0  0
  2 12  1  0  0  0  0
  3  4  1  0  0  0  0
  3  6  1  0  0  0  0
  3  8  1  0  0  0  0
  4  5  1  0  0  0  0
  4 13  1  0  0  0  0
  4 14  1  0  0  0  0
  5 15  1  0  0  0  0
  6  7  1  0  0  0  0
  6 16  1  0  0  0  0
  6 17  1  0  0  0  0
  8  9  1  0  0  0  0
  8 18  1  0  0  0  0
  8 19  1  0  0  0  0
M  END
$$$$

 OpenBabel12201709243D

 21 21  0  0  0  0  0  0  0  0999 V2000
    1.2314    0.0905    0.5414 O   0  0  0  0  0  0  0  0  0  0  0  0
    2.5490    0.0526    0.2603 C   0  0  0  0  0  0  0  0  0  0  0  0
    3.1525    0.9859   -0.2394 O   0  0  0  0  0  0  0  0  0  0  0  0
    3.1552   -1.2443    0.6208 C   0  0  0  0  0  0  0  0  0  0  0  0
    4.4624   -1.4453    0.3894 C   0  0  0  0  0  0  0  0  0  0  0  0
    5.1672   -2.7044    0.6695 C   0  0  0  0  0  0  0  0  0  0  0  0
    6.5271   -2.6584    1.0232 C   0  0  0  0  0  0  0  0  0  0  0  0
    7.2578   -3.8339    1.2367 C   0  0  0  0  0  0  0  0  0  0  0  0
    6.6249   -5.0595    1.0857 C   0  0  0  0  0  0  0  0  0  0  0  0
    7.2834   -6.2443    1.2603 O   0  0  0  0  0  0  0  0  0  0  0  0
    5.2796   -5.1140    0.7320 C   0  0  0  0  0  0  0  0  0  0  0  0
    4.6619   -6.3224    0.5751 O   0  0  0  0  0  0  0  0  0  0  0  0
    4.5489   -3.9528    0.5184 C   0  0  0  0  0  0  0  0  0  0  0  0
    0.8609   -0.7195    0.9351 H   0  0  0  0  0  0  0  0  0  0  0  0
    2.5308   -2.0083    1.0619 H   0  0  0  0  0  0  0  0  0  0  0  0
    5.0701   -0.6469   -0.0363 H   0  0  0  0  0  0  0  0  0  0  0  0
    7.0317   -1.6998    1.1349 H   0  0  0  0  0  0  0  0  0  0  0  0
    8.3059   -3.7670    1.5094 H   0  0  0  0  0  0  0  0  0  0  0  0
    8.2160   -6.0463    1.4542 H   0  0  0  0  0  0  0  0  0  0  0  0
    5.3633   -6.9802    0.7534 H   0  0  0  0  0  0  0  0  0  0  0  0
    3.5112   -4.0412    0.2125 H   0  0  0  0  0  0  0  0  0  0  0  0
  1  2  1  0  0  0  0
  1 14  1  0  0  0  0
  2  3  2  0  0  0  0
  2  4  1  0  0  0  0
  4  5  2  3  0  0  0
  4 15  1  0  0  0  0
  5  6  1  0  0  0  0
  5 16  1  0  0  0  0
  6  7  2  0  0  0  0
  6 13  1  0  0  0  0
  7  8  1  0  0  0  0
  7 17  1  0  0  0  0
  8  9  2  0  0  0  0
  8 18  1  0  0  0  0
  9 10  1  0  0  0  0
  9 11  1  0  0  0  0
 10 19  1  0  0  0  0
 11 12  1  0  0  0  0
 11 13  2  0  0  0  0
 12 20  1  0  0  0  0
 13 21  1  0  0  0  0
M  END
$$$$

 OpenBabel12201709243D

 40 40  0  0  0  0  0  0  0  0999 V2000
    4.1895   -0.6776    1.4926 O   0  0  0  0  0  0  0  0  0  0  0  0
    3.1324    0.1289    0.9808 C   0  0  0  0  0  0  0  0  0  0  0  0
    3.7069    1.3162    0.2044 C   0  0  0  0  0  0  0  0  0  0  0  0
    4.4951    0.8798   -0.9694 N   0  0  0  0  0  0  0  0  0  0  0  0
    5.0428    1.8970   -1.7857 C   0  0  0  0  0  0  0  0  0  0  0  0
    4.8816    3.2582   -1.4991 C   0  0  0  0  0  0  0  0  0  0  0  0
    5.3671    4.2683   -2.3402 C   0  0  0  0  0  0  0  0  0  0  0  0
    6.0149    3.9728   -3.5395 C   0  0  0  0  0  0  0  0  0  0  0  0
    6.2152    2.6144   -3.8211 C   0  0  0  0  0  0  0  0  0  0  0  0
    5.7409    1.5960   -2.9659 C   0  0  0  0  0  0  0  0  0  0  0  0
    5.9828    0.2150   -3.3740 N   0  0  0  0  0  0  0  0  0  0  0  0
    6.9241   -0.0287   -4.1076 O   0  0  0  0  0  0  0  0  0  0  0  0
    5.1450   -0.8276   -2.9909 O   0  0  0  0  0  0  0  0  0  0  0  0
    6.4271    4.9548   -4.4394 N   0  0  0  0  0  0  0  0  0  0  0  0
    6.6799    6.3520   -4.0069 C   0  0  0  0  0  0  0  0  0  0  0  0
    7.8825    6.4873   -3.0593 C   0  0  0  0  0  0  0  0  0  0  0  0
    9.0870    6.0081   -3.6505 O   0  0  0  0  0  0  0  0  0  0  0  0
    5.8985    4.8150   -5.8273 C   0  0  0  0  0  0  0  0  0  0  0  0
    4.3606    4.8547   -5.9239 C   0  0  0  0  0  0  0  0  0  0  0  0
    3.8191    6.0637   -5.3947 O   0  0  0  0  0  0  0  0  0  0  0  0
    3.7755   -1.3649    2.0446 H   0  0  0  0  0  0  0  0  0  0  0  0
    2.5469    0.5023    1.8288 H   0  0  0  0  0  0  0  0  0  0  0  0
    2.4878   -0.4879    0.3477 H   0  0  0  0  0  0  0  0  0  0  0  0
    4.3590    1.8816    0.8817 H   0  0  0  0  0  0  0  0  0  0  0  0
    2.8704    1.9470   -0.1169 H   0  0  0  0  0  0  0  0  0  0  0  0
    5.2354    0.2468   -0.6333 H   0  0  0  0  0  0  0  0  0  0  0  0
    4.3681    3.5913   -0.6024 H   0  0  0  0  0  0  0  0  0  0  0  0
    5.1814    5.2940   -2.0414 H   0  0  0  0  0  0  0  0  0  0  0  0
    6.7549    2.3307   -4.7237 H   0  0  0  0  0  0  0  0  0  0  0  0
    4.5006   -0.3502   -2.4399 H   0  0  0  0  0  0  0  0  0  0  0  0
    5.7892    6.7929   -3.5486 H   0  0  0  0  0  0  0  0  0  0  0  0
    6.9070    6.9588   -4.8924 H   0  0  0  0  0  0  0  0  0  0  0  0
    7.7308    5.9562   -2.1161 H   0  0  0  0  0  0  0  0  0  0  0  0
    8.0335    7.5464   -2.8242 H   0  0  0  0  0  0  0  0  0  0  0  0
    8.9512    5.0494   -3.7732 H   0  0  0  0  0  0  0  0  0  0  0  0
    6.2653    3.8881   -6.2822 H   0  0  0  0  0  0  0  0  0  0  0  0
    6.3012    5.6273   -6.4443 H   0  0  0  0  0  0  0  0  0  0  0  0
    3.8924    4.0127   -5.4031 H   0  0  0  0  0  0  0  0  0  0  0  0
    4.0609    4.7966   -6.9751 H   0  0  0  0  0  0  0  0  0  0  0  0
    3.9265    5.9922   -4.4305 H   0  0  0  0  0  0  0  0  0  0  0  0
  1  2  1  0  0  0  0
  1 21  1  0  0  0  0
  2  3  1  0  0  0  0
  2 22  1  0  0  0  0
  2 23  1  0  0  0  0
  3  4  1  0  0  0  0
  3 24  1  0  0  0  0
  3 25  1  0  0  0  0
  4  5  1  0  0  0  0
  4 26  1  0  0  0  0
  5  6  2  0  0  0  0
  5 10  1  0  0  0  0
  6  7  1  0  0  0  0
  6 27  1  0  0  0  0
  7  8  2  0  0  0  0
  7 28  1  0  0  0  0
  8  9  1  0  0  0  0
  8 14  1  0  0  0  0
  9 10  2  0  0  0  0
  9 29  1  0  0  0  0
 10 11  1  0  0  0  0
 11 12  2  0  0  0  0
 11 13  1  0  0  0  0
 13 30  1  0  0  0  0
 14 15  1  0  0  0  0
 14 18  1  0  0  0  0
 15 16  1  0  0  0  0
 15 31  1  0  0  0  0
 15 32  1  0  0  0  0
 16 17  1  0  0  0  0
 16 33  1  0  0  0  0
 16 34  1  0  0  0  0
 17 35  1  0  0  0  0
 18 19  1  0  0  0  0
 18 36  1  0  0  0  0
 18 37  1  0  0  0  0
 19 20  1  0  0  0  0
 19 38  1  0  0  0  0
 19 39  1  0  0  0  0
 20 40  1  0  0  0  0
M  END
$$$$

 OpenBabel12201709243D

 40 40  0  0  0  0  0  0  0  0999 V2000
    6.3333   -2.0952   -6.3917 C   0  0  0  0  0  0  0  0  0  0  0  0
    6.7706   -1.6526   -5.0122 C   0  0  0  0  0  0  0  0  0  0  0  0
    5.7362   -1.9370   -4.0727 O   0  0  0  0  0  0  0  0  0  0  0  0
    6.1340   -1.4765   -2.4533 P   0  0  0  0  0  0  0  0  0  0  0  0
    5.3100    0.3502   -2.7304 S   0  0  0  0  0  0  0  0  0  0  0  0
    4.9392   -2.5008   -1.9355 O   0  0  0  0  0  0  0  0  0  0  0  0
    5.1212   -3.9067   -1.8165 C   0  0  0  0  0  0  0  0  0  0  0  0
    5.8856   -4.5993   -2.9322 C   0  0  0  0  0  0  0  0  0  0  0  0
    6.5319   -1.0159   -0.8339 O   0  0  0  0  0  0  0  0  0  0  0  0
    7.3589   -1.7403   -0.0105 C   0  0  0  0  0  0  0  0  0  0  0  0
    8.0241   -1.0299    0.9695 C   0  0  0  0  0  0  0  0  0  0  0  0
    8.6688   -1.7748    1.9344 C   0  0  0  0  0  0  0  0  0  0  0  0
    9.4250   -1.1233    3.0533 C   0  0  0  0  0  0  0  0  0  0  0  0
    8.5854   -3.1201    1.9713 N   0  0  0  0  0  0  0  0  0  0  0  0
    7.8886   -3.7258    0.9947 C   0  0  0  0  0  0  0  0  0  0  0  0
    7.3296   -3.0754   -0.0469 N   0  0  0  0  0  0  0  0  0  0  0  0
    7.5662   -5.1977    1.1581 C   0  0  0  0  0  0  0  0  0  0  0  0
    8.8279   -6.0511    1.2363 C   0  0  0  0  0  0  0  0  0  0  0  0
    6.6765   -5.4421    2.3841 C   0  0  0  0  0  0  0  0  0  0  0  0
    7.0896   -1.8332   -7.1378 H   0  0  0  0  0  0  0  0  0  0  0  0
    5.3853   -1.6232   -6.6681 H   0  0  0  0  0  0  0  0  0  0  0  0
    6.1751   -3.1774   -6.4160 H   0  0  0  0  0  0  0  0  0  0  0  0
    6.9865   -0.5802   -5.0215 H   0  0  0  0  0  0  0  0  0  0  0  0
    7.6788   -2.1849   -4.7116 H   0  0  0  0  0  0  0  0  0  0  0  0
    4.1253   -4.3565   -1.7504 H   0  0  0  0  0  0  0  0  0  0  0  0
    5.5744   -4.1380   -0.8583 H   0  0  0  0  0  0  0  0  0  0  0  0
    5.2843   -4.6260   -3.8471 H   0  0  0  0  0  0  0  0  0  0  0  0
    6.1121   -5.6356   -2.6542 H   0  0  0  0  0  0  0  0  0  0  0  0
    6.8324   -4.1051   -3.1641 H   0  0  0  0  0  0  0  0  0  0  0  0
    8.0064    0.0523    0.9895 H   0  0  0  0  0  0  0  0  0  0  0  0
    9.5370   -0.0452    2.8973 H   0  0  0  0  0  0  0  0  0  0  0  0
   10.4262   -1.5602    3.1255 H   0  0  0  0  0  0  0  0  0  0  0  0
    8.9016   -1.2842    4.0014 H   0  0  0  0  0  0  0  0  0  0  0  0
    7.0025   -5.5260    0.2770 H   0  0  0  0  0  0  0  0  0  0  0  0
    9.4344   -5.8018    2.1137 H   0  0  0  0  0  0  0  0  0  0  0  0
    9.4476   -5.9106    0.3447 H   0  0  0  0  0  0  0  0  0  0  0  0
    8.5674   -7.1138    1.3008 H   0  0  0  0  0  0  0  0  0  0  0  0
    7.1870   -5.1820    3.3186 H   0  0  0  0  0  0  0  0  0  0  0  0
    6.3893   -6.4986    2.4482 H   0  0  0  0  0  0  0  0  0  0  0  0
    5.7552   -4.8511    2.3331 H   0  0  0  0  0  0  0  0  0  0  0  0
  1  2  1  0  0  0  0
  1 20  1  0  0  0  0
  1 21  1  0  0  0  0
  1 22  1  0  0  0  0
  2  3  1  0  0  0  0
  2 23  1  0  0  0  0
  2 24  1  0  0  0  0
  3  4  1  0  0  0  0
  4  5  2  0  0  0  0
  4  6  1  0  0  0  0
  4  9  1  0  0  0  0
  6  7  1  0  0  0  0
  7  8  1  0  0  0  0
  7 25  1  0  0  0  0
  7 26  1  0  0  0  0
  8 27  1  0  0  0  0
  8 28  1  0  0  0  0
  8 29  1  0  0  0  0
  9 10  1  0  0  0  0
 10 11  2  0  0  0  0
 10 16  1  0  0  0  0
 11 12  1  0  0  0  0
 11 30  1  0  0  0  0
 12 13  1  0  0  0  0
 12 14  2  0  0  0  0
 13 31  1  0  0  0  0
 13 32  1  0  0  0  0
 13 33  1  0  0  0  0
 14 15  1  0  0  0  0
 15 16  2  0  0  0  0
 15 17  1  0  0  0  0
 17 18  1  0  0  0  0
 17 19  1  0  0  0  0
 17 34  1  0  0  0  0
 18 35  1  0  0  0  0
 18 36  1  0  0  0  0
 18 37  1  0  0  0  0
 19 38  1  0  0  0  0
 19 39  1  0  0  0  0
 19 40  1  0  0  0  0
M  END
$$$$

 OpenBabel12201709243D

 29 31  0  0  1  0  0  0  0  0999 V2000
    1.9647    0.3085   -1.4888 O   0  0  0  0  0  0  0  0  0  0  0  0
    2.8650    0.2260   -0.4525 N   0  0  0  0  0  0  0  0  0  0  0  0
    3.3192    1.2558    0.0012 O   0  0  0  0  0  0  0  0  0  0  0  0
    3.2538   -1.0215    0.0734 C   0  0  0  0  0  0  0  0  0  0  0  0
    4.1458   -1.2035    1.1139 C   0  0  0  0  0  0  0  0  0  0  0  0
    4.3380   -2.5829    1.4295 C   0  0  0  0  0  0  0  0  0  0  0  0
    3.5777   -3.4153    0.6275 C   0  0  0  0  0  0  0  0  0  0  0  0
    2.6600   -2.5117   -0.5056 S   0  0  0  0  0  0  0  0  0  0  0  0
    3.4606   -4.9116    0.6206 C   0  0  3  0  0  0  0  0  0  0  0  0
    2.9600   -5.3542    1.8850 N   0  0  0  0  0  0  0  0  0  0  0  0
    2.7342   -6.6958    2.0649 C   0  0  0  0  0  0  0  0  0  0  0  0
    1.9232   -7.1097    2.8832 O   0  0  0  0  0  0  0  0  0  0  0  0
    3.5292   -7.6017    1.2043 C   0  0  0  0  0  0  0  0  0  0  0  0
    3.3206   -8.9820    1.2296 C   0  0  0  0  0  0  0  0  0  0  0  0
    4.1201   -9.8062    0.4402 C   0  0  0  0  0  0  0  0  0  0  0  0
    5.1322   -9.2502   -0.3455 C   0  0  0  0  0  0  0  0  0  0  0  0
    5.3333   -7.8656   -0.3685 C   0  0  0  0  0  0  0  0  0  0  0  0
    4.4998   -7.0219    0.3691 C   0  0  0  0  0  0  0  0  0  0  0  0
    4.7049   -5.6222    0.3708 N   0  0  0  0  0  0  0  0  0  0  0  0
    1.9477    1.2769   -1.5665 H   0  0  0  0  0  0  0  0  0  0  0  0
    4.6391   -0.3824    1.6253 H   0  0  0  0  0  0  0  0  0  0  0  0
    4.9954   -2.9489    2.2114 H   0  0  0  0  0  0  0  0  0  0  0  0
    2.7230   -5.2094   -0.1397 H   0  0  0  0  0  0  0  0  0  0  0  0
    2.3241   -4.7578    2.3936 H   0  0  0  0  0  0  0  0  0  0  0  0
    2.5482   -9.4088    1.8646 H   0  0  0  0  0  0  0  0  0  0  0  0
    3.9681  -10.8828    0.4523 H   0  0  0  0  0  0  0  0  0  0  0  0
    5.7727   -9.8991   -0.9386 H   0  0  0  0  0  0  0  0  0  0  0  0
    6.1367   -7.4568   -0.9752 H   0  0  0  0  0  0  0  0  0  0  0  0
    5.1531   -5.3050   -0.4830 H   0  0  0  0  0  0  0  0  0  0  0  0
  1  2  1  0  0  0  0
  1 20  1  0  0  0  0
  2  3  2  0  0  0  0
  2  4  1  0  0  0  0
  4  5  2  0  0  0  0
  4  8  1  0  0  0  0
  5  6  1  0  0  0  0
  5 21  1  0  0  0  0
  6  7  2  0  0  0  0
  6 22  1  0  0  0  0
  7  8  1  0  0  0  0
  7  9  1  0  0  0  0
  9 10  1  0  0  0  0
  9 19  1  0  0  0  0
  9 23  1  0  0  0  0
 10 11  1  0  0  0  0
 10 24  1  0  0  0  0
 11 12  2  0  0  0  0
 11 13  1  0  0  0  0
 13 14  2  0  0  0  0
 13 18  1  0  0  0  0
 14 15  1  0  0  0  0
 14 25  1  0  0  0  0
 15 16  2  0  0  0  0
 15 26  1  0  0  0  0
 16 17  1  0  0  0  0
 16 27  1  0  0  0  0
 17 18  2  0  0  0  0
 17 28  1  0  0  0  0
 18 19  1  0  0  0  0
 19 29  1  0  0  0  0
M  END
$$$$

 OpenBabel12201709243D

 35 37  0  0  0  0  0  0  0  0999 V2000
    5.6772    0.8186    2.3551 O   0  0  0  0  0  0  0  0  0  0  0  0
    6.3372    0.5124    1.1208 C   0  0  0  0  0  0  0  0  0  0  0  0
    5.2853    0.3136    0.0181 C   0  0  0  0  0  0  0  0  0  0  0  0
    4.3960    1.4829   -0.0538 N   0  0  0  0  0  0  0  0  0  0  0  0
    5.0002    2.6533   -0.5700 C   0  0  0  0  0  0  0  0  0  0  0  0
    6.0979    2.5209   -1.3384 N   0  0  0  0  0  0  0  0  0  0  0  0
    6.6373    3.6483   -1.8182 C   0  0  0  0  0  0  0  0  0  0  0  0
    6.1693    4.8881   -1.6321 N   0  0  0  0  0  0  0  0  0  0  0  0
    5.0618    5.0059   -0.9045 C   0  0  0  0  0  0  0  0  0  0  0  0
    4.5395    6.2783   -0.7168 C   0  0  0  0  0  0  0  0  0  0  0  0
    3.3889    6.4990    0.0424 C   0  0  0  0  0  0  0  0  0  0  0  0
    2.7479    5.4272    0.6458 C   0  0  0  0  0  0  0  0  0  0  0  0
    3.2512    4.1400    0.4671 C   0  0  0  0  0  0  0  0  0  0  0  0
    4.4088    3.9109   -0.3186 C   0  0  0  0  0  0  0  0  0  0  0  0
    7.8570    3.5058   -2.6122 C   0  0  0  0  0  0  0  0  0  0  0  0
    8.2484    2.4626   -3.4321 C   0  0  0  0  0  0  0  0  0  0  0  0
    9.5108    2.6966   -4.0563 C   0  0  0  0  0  0  0  0  0  0  0  0
   10.0651    3.9010   -3.6728 C   0  0  0  0  0  0  0  0  0  0  0  0
    9.0553    4.7357   -2.5781 S   0  0  0  0  0  0  0  0  0  0  0  0
   11.3108    4.4004   -4.1182 N   0  0  0  0  0  0  0  0  0  0  0  0
   11.9714    3.7444   -4.8977 O   0  0  0  0  0  0  0  0  0  0  0  0
   11.7875    5.6222   -3.6703 O   0  0  0  0  0  0  0  0  0  0  0  0
    6.3748    1.0594    2.9897 H   0  0  0  0  0  0  0  0  0  0  0  0
    6.9275   -0.3978    1.2566 H   0  0  0  0  0  0  0  0  0  0  0  0
    7.0153    1.3394    0.8874 H   0  0  0  0  0  0  0  0  0  0  0  0
    4.6564   -0.5425    0.2909 H   0  0  0  0  0  0  0  0  0  0  0  0
    5.7456    0.0747   -0.9471 H   0  0  0  0  0  0  0  0  0  0  0  0
    4.0762    1.6655    0.8977 H   0  0  0  0  0  0  0  0  0  0  0  0
    5.0404    7.1256   -1.1803 H   0  0  0  0  0  0  0  0  0  0  0  0
    2.9991    7.5076    0.1552 H   0  0  0  0  0  0  0  0  0  0  0  0
    1.8575    5.5886    1.2478 H   0  0  0  0  0  0  0  0  0  0  0  0
    2.7317    3.3127    0.9441 H   0  0  0  0  0  0  0  0  0  0  0  0
    7.6408    1.5786   -3.5940 H   0  0  0  0  0  0  0  0  0  0  0  0
    9.9881    2.0151   -4.7530 H   0  0  0  0  0  0  0  0  0  0  0  0
   11.0710    5.9067   -3.0828 H   0  0  0  0  0  0  0  0  0  0  0  0
  1  2  1  0  0  0  0
  1 23  1  0  0  0  0
  2  3  1  0  0  0  0
  2 24  1  0  0  0  0
  2 25  1  0  0  0  0
  3  4  1  0  0  0  0
  3 26  1  0  0  0  0
  3 27  1  0  0  0  0
  4  5  1  0  0  0  0
  4 28  1  0  0  0  0
  5  6  2  0  0  0  0
  5 14  1  0  0  0  0
  6  7  1  0  0  0  0
  7  8  2  0  0  0  0
  7 15  1  0  0  0  0
  8  9  1  0  0  0  0
  9 10  2  0  0  0  0
  9 14  1  0  0  0  0
 10 11  1  0  0  0  0
 10 29  1  0  0  0  0
 11 12  2  0  0  0  0
 11 30  1  0  0  0  0
 12 13  1  0  0  0  0
 12 31  1  0  0  0  0
 13 14  2  0  0  0  0
 13 32  1  0  0  0  0
 15 16  2  0  0  0  0
 15 19  1  0  0  0  0
 16 17  1  0  0  0  0
 16 33  1  0  0  0  0
 17 18  2  0  0  0  0
 17 34  1  0  0  0  0
 18 19  1  0  0  0  0
 18 20  1  0  0  0  0
 20 21  2  0  0  0  0
 20 22  1  0  0  0  0
 22 35  1  0  0  0  0
M  END
$$$$

 OpenBabel12201709243D

 22 24  0  0  0  0  0  0  0  0999 V2000
    1.0126    0.1006   -0.0454 Cl  0  0  0  0  0  0  0  0  0  0  0  0
    2.7319    0.0307   -0.0481 C   0  0  0  0  0  0  0  0  0  0  0  0
    3.4720    1.2149   -0.0500 C   0  0  0  0  0  0  0  0  0  0  0  0
    4.8678    1.1621   -0.0522 C   0  0  0  0  0  0  0  0  0  0  0  0
    5.5113   -0.0748   -0.0526 C   0  0  0  0  0  0  0  0  0  0  0  0
    6.8834   -0.0772   -0.0548 O   0  0  0  0  0  0  0  0  0  0  0  0
    7.4736   -1.3165   -0.0549 C   0  0  0  0  0  0  0  0  0  0  0  0
    8.8665   -1.3670   -0.0572 C   0  0  0  0  0  0  0  0  0  0  0  0
    9.5042   -2.6067   -0.0575 C   0  0  0  0  0  0  0  0  0  0  0  0
   11.2233   -2.6819   -0.0601 Cl  0  0  0  0  0  0  0  0  0  0  0  0
    8.7619   -3.7895   -0.0556 C   0  0  0  0  0  0  0  0  0  0  0  0
    7.3668   -3.7335   -0.0534 C   0  0  0  0  0  0  0  0  0  0  0  0
    6.7266   -2.4950   -0.0530 C   0  0  0  0  0  0  0  0  0  0  0  0
    5.3550   -2.4927   -0.0509 O   0  0  0  0  0  0  0  0  0  0  0  0
    4.7651   -1.2539   -0.0507 C   0  0  0  0  0  0  0  0  0  0  0  0
    3.3722   -1.2071   -0.0484 C   0  0  0  0  0  0  0  0  0  0  0  0
    2.9685    2.1783   -0.0498 H   0  0  0  0  0  0  0  0  0  0  0  0
    5.4486    2.0805   -0.0537 H   0  0  0  0  0  0  0  0  0  0  0  0
    9.4439   -0.4472   -0.0586 H   0  0  0  0  0  0  0  0  0  0  0  0
    9.2626   -4.7543   -0.0558 H   0  0  0  0  0  0  0  0  0  0  0  0
    6.7831   -4.6500   -0.0519 H   0  0  0  0  0  0  0  0  0  0  0  0
    2.7978   -2.1286   -0.0469 H   0  0  0  0  0  0  0  0  0  0  0  0
  1  2  1  0  0  0  0
  2  3  2  0  0  0  0
  2 16  1  0  0  0  0
  3  4  1  0  0  0  0
  3 17  1  0  0  0  0
  4  5  2  0  0  0  0
  4 18  1  0  0  0  0
  5  6  1  0  0  0  0
  5 15  1  0  0  0  0
  6  7  1  0  0  0  0
  7  8  2  0  0  0  0
  7 13  1  0  0  0  0
  8  9  1  0  0  0  0
  8 19  1  0  0  0  0
  9 10  1  0  0  0  0
  9 11  2  0  0  0  0
 11 12  1  0  0  0  0
 11 20  1  0  0  0  0
 12 13  2  0  0  0  0
 12 21  1  0  0  0  0
 13 14  1  0  0  0  0
 14 15  1  0  0  0  0
 15 16  2  0  0  0  0
 16 22  1  0  0  0  0
M  END
$$$$

 OpenBabel12201709243D

  9  8  0  0  0  0  0  0  0  0999 V2000
    0.9630   -0.0643    0.0503 C   0  0  0  0  0  0  0  0  0  0  0  0
    2.4356   -0.0928    0.0104 N   0  0  0  0  0  0  0  0  0  0  0  0
    3.2250    0.6033    0.9769 N   0  0  0  0  0  0  0  0  0  0  0  0
    2.5660    1.2137    1.8233 O   0  0  0  0  0  0  0  0  0  0  0  0
    3.1521   -0.7550   -0.9072 C   0  0  0  0  0  0  0  0  0  0  0  0
    3.7447   -1.3382   -1.7153 N   0  0  0  0  0  0  0  0  0  0  0  0
    0.5563    0.5293    0.8726 H   0  0  0  0  0  0  0  0  0  0  0  0
    0.5796   -1.0850    0.1535 H   0  0  0  0  0  0  0  0  0  0  0  0
    0.5794    0.3548   -0.8860 H   0  0  0  0  0  0  0  0  0  0  0  0
  1  2  1  0  0  0  0
  1  7  1  0  0  0  0
  1  8  1  0  0  0  0
  1  9  1  0  0  0  0
  2  3  1  0  0  0  0
  2  5  1  0  0  0  0
  3  4  2  0  0  0  0
  5  6  3  0  0  0  0
M  END
$$$$

 OpenBabel12201709243D

 28 29  0  0  1  0  0  0  0  0999 V2000
    1.0117    0.7637    0.1912 C   0  0  0  0  0  0  0  0  0  0  0  0
    2.4912    0.7682    0.4298 C   0  0  0  0  0  0  0  0  0  0  0  0
    3.0007    0.7725    1.5415 O   0  0  0  0  0  0  0  0  0  0  0  0
    3.1528    0.8345   -0.7523 O   0  0  0  0  0  0  0  0  0  0  0  0
    4.5900    0.8963   -0.6836 C   0  0  3  0  0  0  0  0  0  0  0  0
    5.0762   -0.3294   -1.4166 C   0  0  0  0  0  0  0  0  0  0  0  0
    5.8371   -1.2942   -0.8784 C   0  0  0  0  0  0  0  0  0  0  0  0
    5.0112    2.2358   -1.2829 C   0  0  0  0  0  0  0  0  0  0  0  0
    5.8509    2.3549   -2.4178 C   0  0  0  0  0  0  0  0  0  0  0  0
    6.1883    3.6073   -2.9482 C   0  0  0  0  0  0  0  0  0  0  0  0
    5.6814    4.7272   -2.3291 C   0  0  0  0  0  0  0  0  0  0  0  0
    5.8905    6.0146   -2.7125 O   0  0  0  0  0  0  0  0  0  0  0  0
    5.1070    6.7202   -1.7274 C   0  0  0  0  0  0  0  0  0  0  0  0
    4.4887    5.8514   -0.7559 O   0  0  0  0  0  0  0  0  0  0  0  0
    4.8828    4.6342   -1.2169 C   0  0  0  0  0  0  0  0  0  0  0  0
    4.5407    3.4164   -0.6680 C   0  0  0  0  0  0  0  0  0  0  0  0
    0.5164    0.2332    1.0090 H   0  0  0  0  0  0  0  0  0  0  0  0
    0.7760    0.2376   -0.7382 H   0  0  0  0  0  0  0  0  0  0  0  0
    0.6477    1.7926    0.1400 H   0  0  0  0  0  0  0  0  0  0  0  0
    4.9644    0.8719    0.3479 H   0  0  0  0  0  0  0  0  0  0  0  0
    4.7519   -0.4369   -2.4496 H   0  0  0  0  0  0  0  0  0  0  0  0
    6.1673   -1.2510    0.1556 H   0  0  0  0  0  0  0  0  0  0  0  0
    6.1361   -2.1584   -1.4635 H   0  0  0  0  0  0  0  0  0  0  0  0
    6.2528    1.4713   -2.9090 H   0  0  0  0  0  0  0  0  0  0  0  0
    6.8244    3.6933   -3.8221 H   0  0  0  0  0  0  0  0  0  0  0  0
    4.3201    7.2828   -2.2435 H   0  0  0  0  0  0  0  0  0  0  0  0
    5.7579    7.4282   -1.2023 H   0  0  0  0  0  0  0  0  0  0  0  0
    3.9124    3.3813    0.2166 H   0  0  0  0  0  0  0  0  0  0  0  0
  1  2  1  0  0  0  0
  1 17  1  0  0  0  0
  1 18  1  0  0  0  0
  1 19  1  0  0  0  0
  2  3  2  0  0  0  0
  2  4  1  0  0  0  0
  4  5  1  0  0  0  0
  5  6  1  0  0  0  0
  5  8  1  0  0  0  0
  5 20  1  0  0  0  0
  6  7  2  0  0  0  0
  6 21  1  0  0  0  0
  7 22  1  0  0  0  0
  7 23  1  0  0  0  0
  8  9  2  0  0  0  0
  8 16  1  0  0  0  0
  9 10  1  0  0  0  0
  9 24  1  0  0  0  0
 10 11  2  0  0  0  0
 10 25  1  0  0  0  0
 11 12  1  0  0  0  0
 11 15  1  0  0  0  0
 12 13  1  0  0  0  0
 13 14  1  0  0  0  0
 13 26  1  0  0  0  0
 13 27  1  0  0  0  0
 14 15  1  0  0  0  0
 15 16  2  0  0  0  0
 16 28  1  0  0  0  0
M  END
$$$$

 OpenBabel12201709243D

 30 31  0  0  0  0  0  0  0  0999 V2000
    1.5009    0.7288    0.6696 C   0  0  0  0  0  0  0  0  0  0  0  0
    2.5541   -0.0273    0.0772 O   0  0  0  0  0  0  0  0  0  0  0  0
    3.0749    0.5068   -1.0812 C   0  0  0  0  0  0  0  0  0  0  0  0
    3.1003    1.8767   -1.3547 C   0  0  0  0  0  0  0  0  0  0  0  0
    3.6327    2.3646   -2.5557 C   0  0  0  0  0  0  0  0  0  0  0  0
    3.7018    3.7396   -2.8626 N   0  0  0  0  0  0  0  0  0  0  0  0
    2.7281    4.3763   -2.4027 N   0  0  0  0  0  0  0  0  0  0  0  0
    2.7900    5.7509   -2.7055 C   0  0  0  0  0  0  0  0  0  0  0  0
    3.2976    6.2481   -3.9155 C   0  0  0  0  0  0  0  0  0  0  0  0
    3.2973    7.6190   -4.1845 C   0  0  0  0  0  0  0  0  0  0  0  0
    2.7789    8.5114   -3.2492 C   0  0  0  0  0  0  0  0  0  0  0  0
    2.2624    8.0348   -2.0453 C   0  0  0  0  0  0  0  0  0  0  0  0
    2.2673    6.6629   -1.7807 C   0  0  0  0  0  0  0  0  0  0  0  0
    4.1839    1.4511   -3.4600 C   0  0  0  0  0  0  0  0  0  0  0  0
    4.1966    0.0820   -3.1772 C   0  0  0  0  0  0  0  0  0  0  0  0
    3.6167   -0.4070   -2.0036 C   0  0  0  0  0  0  0  0  0  0  0  0
    3.7712   -1.7638   -1.6658 N   0  0  0  0  0  0  0  0  0  0  0  0
    1.0888    0.1425    1.4951 H   0  0  0  0  0  0  0  0  0  0  0  0
    0.6944    0.9113   -0.0506 H   0  0  0  0  0  0  0  0  0  0  0  0
    1.8681    1.6696    1.0933 H   0  0  0  0  0  0  0  0  0  0  0  0
    2.7327    2.5968   -0.6319 H   0  0  0  0  0  0  0  0  0  0  0  0
    3.6937    5.5618   -4.6588 H   0  0  0  0  0  0  0  0  0  0  0  0
    3.6975    7.9841   -5.1260 H   0  0  0  0  0  0  0  0  0  0  0  0
    2.7748    9.5780   -3.4610 H   0  0  0  0  0  0  0  0  0  0  0  0
    1.8531    8.7302   -1.3168 H   0  0  0  0  0  0  0  0  0  0  0  0
    1.8566    6.2989   -0.8408 H   0  0  0  0  0  0  0  0  0  0  0  0
    4.6281    1.8120   -4.3845 H   0  0  0  0  0  0  0  0  0  0  0  0
    4.6749   -0.5997   -3.8760 H   0  0  0  0  0  0  0  0  0  0  0  0
    3.7614   -2.3950   -2.4593 H   0  0  0  0  0  0  0  0  0  0  0  0
    3.1317   -2.0323   -0.9219 H   0  0  0  0  0  0  0  0  0  0  0  0
  1  2  1  0  0  0  0
  1 18  1  0  0  0  0
  1 19  1  0  0  0  0
  1 20  1  0  0  0  0
  2  3  1  0  0  0  0
  3  4  2  0  0  0  0
  3 16  1  0  0  0  0
  4  5  1  0  0  0  0
  4 21  1  0  0  0  0
  5  6  1  0  0  0  0
  5 14  2  0  0  0  0
  6  7  2  3  0  0  0
  7  8  1  0  0  0  0
  8  9  2  0  0  0  0
  8 13  1  0  0  0  0
  9 10  1  0  0  0  0
  9 22  1  0  0  0  0
 10 11  2  0  0  0  0
 10 23  1  0  0  0  0
 11 12  1  0  0  0  0
 11 24  1  0  0  0  0
 12 13  2  0  0  0  0
 12 25  1  0  0  0  0
 13 26  1  0  0  0  0
 14 15  1  0  0  0  0
 14 27  1  0  0  0  0
 15 16  2  0  0  0  0
 15 28  1  0  0  0  0
 16 17  1  0  0  0  0
 17 29  1  0  0  0  0
 17 30  1  0  0  0  0
M  END
$$$$

 OpenBabel12201709243D

103 107  0  0  1  0  0  0  0  0999 V2000
    1.2951    0.5221    1.7263 C   0  0  0  0  0  0  0  0  0  0  0  0
    2.2762   -0.6649    1.7636 C   0  0  0  0  0  0  0  0  0  0  0  0
    3.1367   -0.5249    0.5193 C   0  0  0  0  0  0  0  0  0  0  0  0
    2.9723   -0.6742    3.1671 C   0  0  0  0  0  0  0  0  0  0  0  0
    3.9337   -1.8067    3.6722 C   0  0  0  0  0  0  0  0  0  0  0  0
    5.5763   -2.1064    3.6637 C   0  0  0  0  0  0  0  0  0  0  0  0
    7.3167   -1.8257    2.9118 C   0  0  3  0  0  0  0  0  0  0  0  0
    7.6027   -0.4392    1.3086 C   0  0  0  0  0  0  0  0  0  0  0  0
    8.2359   -2.6064    4.4429 C   0  0  3  0  0  0  0  0  0  0  0  0
    8.2871   -4.0558    3.9260 C   0  0  0  0  0  0  0  0  0  0  0  0
    9.3594   -4.6646    4.6762 C   0  0  0  0  0  0  0  0  0  0  0  0
   10.3846   -3.5432    4.6038 C   0  0  3  0  0  0  0  0  0  0  0  0
   10.8254   -2.5729    3.4440 C   0  0  3  0  0  0  0  0  0  0  0  0
   10.9230   -3.3781    2.1598 C   0  0  0  0  0  0  0  0  0  0  0  0
   10.1793   -2.7967    1.0571 C   0  0  0  0  0  0  0  0  0  0  0  0
    9.2900   -1.8197    1.2388 C   0  0  0  0  0  0  0  0  0  0  0  0
    7.8164   -2.3193    0.2871 C   0  0  0  0  0  0  0  0  0  0  0  0
    6.1334   -2.1374    1.0435 C   0  0  3  0  0  0  0  0  0  0  0  0
    5.9007   -0.4694    2.1648 C   0  0  0  0  0  0  0  0  0  0  0  0
    7.4589    0.1680    3.2525 C   0  0  0  0  0  0  0  0  0  0  0  0
    9.2349   -0.4497    2.5560 C   0  0  3  0  0  0  0  0  0  0  0  0
    9.9144    0.9515    2.2633 C   0  0  0  0  0  0  0  0  0  0  0  0
   10.1573   -1.0338    3.5838 C   0  0  3  0  0  0  0  0  0  0  0  0
   10.4379   -0.2132    4.8498 C   0  0  0  0  0  0  0  0  0  0  0  0
    9.8276   -1.0375    5.9954 C   0  0  0  0  0  0  0  0  0  0  0  0
    9.7852   -2.5640    5.6213 C   0  0  3  0  0  0  0  0  0  0  0  0
   11.5173   -2.5330    6.0413 C   0  0  0  0  0  0  0  0  0  0  0  0
    6.1571   -3.7130    1.6730 O   0  0  0  0  0  0  0  0  0  0  0  0
    5.2830   -4.7401    1.9658 C   0  0  0  0  0  0  0  0  0  0  0  0
    4.6122   -5.2537    1.0787 O   0  0  0  0  0  0  0  0  0  0  0  0
    5.3432   -5.2949    3.4543 C   0  0  0  0  0  0  0  0  0  0  0  0
    3.9985   -5.4805    4.0979 C   0  0  0  0  0  0  0  0  0  0  0  0
    3.2139   -6.5252    3.6717 C   0  0  0  0  0  0  0  0  0  0  0  0
    1.8495   -6.5125    3.9460 C   0  0  0  0  0  0  0  0  0  0  0  0
    1.2459   -5.4619    4.6501 C   0  0  0  0  0  0  0  0  0  0  0  0
    2.1096   -4.5783    5.3092 C   0  0  0  0  0  0  0  0  0  0  0  0
    3.4890   -4.6149    5.0828 C   0  0  0  0  0  0  0  0  0  0  0  0
   -0.1272   -5.2664    4.6461 N   0  0  0  0  0  0  0  0  0  0  0  0
   -1.0772   -6.3547    4.3775 C   0  0  0  0  0  0  0  0  0  0  0  0
   -1.5567   -7.0100    5.6731 C   0  0  0  0  0  0  0  0  0  0  0  0
   -2.4983   -5.8958    6.7019 Cl  0  0  0  0  0  0  0  0  0  0  0  0
   -0.6804   -3.8967    4.6363 C   0  0  0  0  0  0  0  0  0  0  0  0
   -0.2788   -3.0951    3.3995 C   0  0  0  0  0  0  0  0  0  0  0  0
   -1.1559   -1.5417    3.4020 Cl  0  0  0  0  0  0  0  0  0  0  0  0
    0.7959    0.6081    0.7534 H   0  0  0  0  0  0  0  0  0  0  0  0
    1.8226    1.4637    1.9157 H   0  0  0  0  0  0  0  0  0  0  0  0
    0.5194    0.4237    2.4856 H   0  0  0  0  0  0  0  0  0  0  0  0
    1.6957   -1.5885    1.6410 H   0  0  0  0  0  0  0  0  0  0  0  0
    3.7918    0.3451    0.5743 H   0  0  0  0  0  0  0  0  0  0  0  0
    2.5234   -0.3860   -0.3809 H   0  0  0  0  0  0  0  0  0  0  0  0
    3.6969   -1.4332    0.3464 H   0  0  0  0  0  0  0  0  0  0  0  0
    2.1101   -0.7837    3.8473 H   0  0  0  0  0  0  0  0  0  0  0  0
    3.3604    0.3163    3.4187 H   0  0  0  0  0  0  0  0  0  0  0  0
    3.4429   -2.7198    3.2938 H   0  0  0  0  0  0  0  0  0  0  0  0
    3.7454   -1.8158    4.7521 H   0  0  0  0  0  0  0  0  0  0  0  0
    5.2822   -2.7946    2.9305 H   0  0  0  0  0  0  0  0  0  0  0  0
    5.7634   -2.7376    4.5278 H   0  0  0  0  0  0  0  0  0  0  0  0
    7.6193   -2.6923    2.3671 H   0  0  0  0  0  0  0  0  0  0  0  0
    7.4823    0.6918    1.4522 H   0  0  0  0  0  0  0  0  0  0  0  0
    6.9234   -0.4399    0.4091 H   0  0  0  0  0  0  0  0  0  0  0  0
    8.5091   -0.2041    0.6696 H   0  0  0  0  0  0  0  0  0  0  0  0
    7.4877   -2.5217    5.2321 H   0  0  0  0  0  0  0  0  0  0  0  0
    8.5512   -4.1430    2.8730 H   0  0  0  0  0  0  0  0  0  0  0  0
    7.4238   -4.6437    4.0522 H   0  0  0  0  0  0  0  0  0  0  0  0
    9.6523   -5.6288    4.2537 H   0  0  0  0  0  0  0  0  0  0  0  0
    9.0258   -4.8651    5.7110 H   0  0  0  0  0  0  0  0  0  0  0  0
   11.2048   -4.2446    4.8224 H   0  0  0  0  0  0  0  0  0  0  0  0
   11.8851   -2.3452    3.6118 H   0  0  0  0  0  0  0  0  0  0  0  0
   10.4978   -4.3883    2.2843 H   0  0  0  0  0  0  0  0  0  0  0  0
   11.9540   -3.5905    1.8698 H   0  0  0  0  0  0  0  0  0  0  0  0
   10.0639   -3.4631    0.2031 H   0  0  0  0  0  0  0  0  0  0  0  0
    7.9205   -3.3810    0.0392 H   0  0  0  0  0  0  0  0  0  0  0  0
    7.8559   -1.7727   -0.6715 H   0  0  0  0  0  0  0  0  0  0  0  0
    5.4118   -2.2000    0.2269 H   0  0  0  0  0  0  0  0  0  0  0  0
    5.0628   -0.3171    2.8178 H   0  0  0  0  0  0  0  0  0  0  0  0
    5.6194    0.3486    1.4532 H   0  0  0  0  0  0  0  0  0  0  0  0
    7.3184   -0.1462    4.3007 H   0  0  0  0  0  0  0  0  0  0  0  0
    7.4015    1.2668    3.2753 H   0  0  0  0  0  0  0  0  0  0  0  0
    9.6679    1.3920    1.2989 H   0  0  0  0  0  0  0  0  0  0  0  0
   11.0025    0.9236    2.3780 H   0  0  0  0  0  0  0  0  0  0  0  0
    9.5562    1.6772    3.0143 H   0  0  0  0  0  0  0  0  0  0  0  0
    9.2398   -1.2330    4.0052 H   0  0  0  0  0  0  0  0  0  0  0  0
    9.9276    0.7536    4.8739 H   0  0  0  0  0  0  0  0  0  0  0  0
   11.5011    0.0254    4.9373 H   0  0  0  0  0  0  0  0  0  0  0  0
    8.8169   -0.7004    6.2477 H   0  0  0  0  0  0  0  0  0  0  0  0
   10.3748   -0.8369    6.9329 H   0  0  0  0  0  0  0  0  0  0  0  0
   12.0462   -1.6086    5.7749 H   0  0  0  0  0  0  0  0  0  0  0  0
   12.2613   -3.2387    5.6209 H   0  0  0  0  0  0  0  0  0  0  0  0
   11.6249   -2.6864    7.1161 H   0  0  0  0  0  0  0  0  0  0  0  0
    5.7710   -4.6075    4.1643 H   0  0  0  0  0  0  0  0  0  0  0  0
    5.9359   -6.2183    3.5184 H   0  0  0  0  0  0  0  0  0  0  0  0
    3.6304   -7.3045    3.0331 H   0  0  0  0  0  0  0  0  0  0  0  0
    1.2780   -7.2941    3.4643 H   0  0  0  0  0  0  0  0  0  0  0  0
    1.7202   -3.8030    5.9688 H   0  0  0  0  0  0  0  0  0  0  0  0
    4.1224   -3.8821    5.5708 H   0  0  0  0  0  0  0  0  0  0  0  0
   -0.6517   -7.1322    3.7383 H   0  0  0  0  0  0  0  0  0  0  0  0
   -1.9309   -5.9772    3.8016 H   0  0  0  0  0  0  0  0  0  0  0  0
   -0.7162   -7.3815    6.2672 H   0  0  0  0  0  0  0  0  0  0  0  0
   -2.2148   -7.8490    5.4345 H   0  0  0  0  0  0  0  0  0  0  0  0
   -0.4034   -3.3625    5.5521 H   0  0  0  0  0  0  0  0  0  0  0  0
   -1.7759   -3.9496    4.6493 H   0  0  0  0  0  0  0  0  0  0  0  0
   -0.5343   -3.6149    2.4710 H   0  0  0  0  0  0  0  0  0  0  0  0
    0.7924   -2.8791    3.3832 H   0  0  0  0  0  0  0  0  0  0  0  0
  1  2  1  0  0  0  0
  1 45  1  0  0  0  0
  1 46  1  0  0  0  0
  1 47  1  0  0  0  0
  2  3  1  0  0  0  0
  2  4  1  0  0  0  0
  2 48  1  0  0  0  0
  3 49  1  0  0  0  0
  3 50  1  0  0  0  0
  3 51  1  0  0  0  0
  4  5  1  0  0  0  0
  4 52  1  0  0  0  0
  4 53  1  0  0  0  0
  5  6  1  0  0  0  0
  5 54  1  0  0  0  0
  5 55  1  0  0  0  0
  6  7  1  0  0  0  0
  6 56  1  0  0  0  0
  6 57  1  0  0  0  0
  7  8  1  0  0  0  0
  7  9  1  0  0  0  0
  7 58  1  0  0  0  0
  8 59  1  0  0  0  0
  8 60  1  0  0  0  0
  8 61  1  0  0  0  0
  9 10  1  0  0  0  0
  9 26  1  0  0  0  0
  9 62  1  0  0  0  0
 10 11  1  0  0  0  0
 10 63  1  0  0  0  0
 10 64  1  0  0  0  0
 11 12  1  0  0  0  0
 11 65  1  0  0  0  0
 11 66  1  0  0  0  0
 12 13  1  0  0  0  0
 12 26  1  0  0  0  0
 12 67  1  0  0  0  0
 13 14  1  0  0  0  0
 13 23  1  0  0  0  0
 13 68  1  0  0  0  0
 14 15  1  0  0  0  0
 14 69  1  0  0  0  0
 14 70  1  0  0  0  0
 15 16  2  0  0  0  0
 15 71  1  0  0  0  0
 16 17  1  0  0  0  0
 16 21  1  0  0  0  0
 17 18  1  0  0  0  0
 17 72  1  0  0  0  0
 17 73  1  0  0  0  0
 18 19  1  0  0  0  0
 18 28  1  0  0  0  0
 18 74  1  0  0  0  0
 19 20  1  0  0  0  0
 19 75  1  0  0  0  0
 19 76  1  0  0  0  0
 20 21  1  0  0  0  0
 20 77  1  0  0  0  0
 20 78  1  0  0  0  0
 21 22  1  0  0  0  0
 21 23  1  0  0  0  0
 22 79  1  0  0  0  0
 22 80  1  0  0  0  0
 22 81  1  0  0  0  0
 23 24  1  0  0  0  0
 23 82  1  0  0  0  0
 24 25  1  0  0  0  0
 24 83  1  0  0  0  0
 24 84  1  0  0  0  0
 25 26  1  0  0  0  0
 25 85  1  0  0  0  0
 25 86  1  0  0  0  0
 26 27  1  0  0  0  0
 27 87  1  0  0  0  0
 27 88  1  0  0  0  0
 27 89  1  0  0  0  0
 28 29  1  0  0  0  0
 29 30  2  0  0  0  0
 29 31  1  0  0  0  0
 31 32  1  0  0  0  0
 31 90  1  0  0  0  0
 31 91  1  0  0  0  0
 32 33  2  0  0  0  0
 32 37  1  0  0  0  0
 33 34  1  0  0  0  0
 33 92  1  0  0  0  0
 34 35  2  0  0  0  0
 34 93  1  0  0  0  0
 35 36  1  0  0  0  0
 35 38  1  0  0  0  0
 36 37  2  0  0  0  0
 36 94  1  0  0  0  0
 37 95  1  0  0  0  0
 38 39  1  0  0  0  0
 38 42  1  0  0  0  0
 39 40  1  0  0  0  0
 39 96  1  0  0  0  0
 39 97  1  0  0  0  0
 40 41  1  0  0  0  0
 40 98  1  0  0  0  0
 40 99  1  0  0  0  0
 42 43  1  0  0  0  0
 42 100 1  0  0  0  0
 42 101 1  0  0  0  0
 43 44  1  0  0  0  0
 43 102 1  0  0  0  0
 43 103 1  0  0  0  0
M  END
$$$$

 OpenBabel12201709243D

 48 50  0  0  0  0  0  0  0  0999 V2000
    1.1070   -0.0797    0.2080 C   0  0  0  0  0  0  0  0  0  0  0  0
    2.6033   -0.0751    0.0443 C   0  0  0  0  0  0  0  0  0  0  0  0
    3.3988    0.5623    1.0076 C   0  0  0  0  0  0  0  0  0  0  0  0
    4.7994    0.5967    0.8971 C   0  0  0  0  0  0  0  0  0  0  0  0
    5.5996    1.3576    1.9197 C   0  0  0  0  0  0  0  0  0  0  0  0
    5.4334   -0.0392   -0.1861 C   0  0  0  0  0  0  0  0  0  0  0  0
    6.8495    0.0164   -0.2765 N   0  0  0  0  0  0  0  0  0  0  0  0
    7.3294   -0.8931   -0.9833 N   0  0  0  0  0  0  0  0  0  0  0  0
    8.7420   -0.8333   -1.1316 C   0  0  0  0  0  0  0  0  0  0  0  0
    9.4354    0.3888   -1.2937 C   0  0  0  0  0  0  0  0  0  0  0  0
    8.7644    1.5880   -1.2211 O   0  0  0  0  0  0  0  0  0  0  0  0
   10.8049    0.3978   -1.5470 C   0  0  0  0  0  0  0  0  0  0  0  0
   11.5167   -0.7979   -1.6446 C   0  0  0  0  0  0  0  0  0  0  0  0
   10.8624   -2.0233   -1.4991 C   0  0  0  0  0  0  0  0  0  0  0  0
   11.5906   -3.2123   -1.6322 C   0  0  0  0  0  0  0  0  0  0  0  0
   10.9460   -4.4440   -1.5252 C   0  0  0  0  0  0  0  0  0  0  0  0
    9.5814   -4.5134   -1.2617 C   0  0  0  0  0  0  0  0  0  0  0  0
    8.8521   -3.3287   -1.1207 C   0  0  0  0  0  0  0  0  0  0  0  0
    9.4648   -2.0578   -1.2407 C   0  0  0  0  0  0  0  0  0  0  0  0
   11.8986   -5.9304   -1.6810 S   0  0  0  0  0  0  0  0  0  0  0  0
   11.2708   -6.9491   -0.8677 O   0  0  0  0  0  0  0  0  0  0  0  0
   12.1795   -6.1184   -3.0855 O   0  0  0  0  0  0  0  0  0  0  0  0
   13.2830   -5.5881   -0.9264 O   0  0  0  0  0  0  0  0  0  0  0  0
   11.6838    1.9100   -1.8229 S   0  0  0  0  0  0  0  0  0  0  0  0
   12.0810    2.3959   -0.5202 O   0  0  0  0  0  0  0  0  0  0  0  0
   12.6499    1.6543   -2.8723 O   0  0  0  0  0  0  0  0  0  0  0  0
   10.5939    2.9433   -2.4203 O   0  0  0  0  0  0  0  0  0  0  0  0
    4.6246   -0.6498   -1.1654 C   0  0  0  0  0  0  0  0  0  0  0  0
    3.2223   -0.6732   -1.0658 C   0  0  0  0  0  0  0  0  0  0  0  0
    2.4163   -1.3178   -2.1607 C   0  0  0  0  0  0  0  0  0  0  0  0
    0.8052    0.3652    1.1622 H   0  0  0  0  0  0  0  0  0  0  0  0
    0.7233   -1.1047    0.1929 H   0  0  0  0  0  0  0  0  0  0  0  0
    0.6367    0.4986   -0.5934 H   0  0  0  0  0  0  0  0  0  0  0  0
    2.9194    1.0491    1.8559 H   0  0  0  0  0  0  0  0  0  0  0  0
    4.9715    1.6958    2.7507 H   0  0  0  0  0  0  0  0  0  0  0  0
    6.0459    2.2441    1.4569 H   0  0  0  0  0  0  0  0  0  0  0  0
    6.3903    0.7286    2.3408 H   0  0  0  0  0  0  0  0  0  0  0  0
    7.8416    1.3621   -0.9659 H   0  0  0  0  0  0  0  0  0  0  0  0
   12.5864   -0.7673   -1.8560 H   0  0  0  0  0  0  0  0  0  0  0  0
   12.6603   -3.1848   -1.8391 H   0  0  0  0  0  0  0  0  0  0  0  0
    9.0779   -5.4742   -1.1704 H   0  0  0  0  0  0  0  0  0  0  0  0
    7.7843   -3.4063   -0.9178 H   0  0  0  0  0  0  0  0  0  0  0  0
   13.3087   -6.1242   -0.1051 H   0  0  0  0  0  0  0  0  0  0  0  0
    9.7712    2.8740   -1.8819 H   0  0  0  0  0  0  0  0  0  0  0  0
    5.0961   -1.1089   -2.0310 H   0  0  0  0  0  0  0  0  0  0  0  0
    3.0593   -1.7373   -2.9416 H   0  0  0  0  0  0  0  0  0  0  0  0
    1.7646   -0.5764   -2.6349 H   0  0  0  0  0  0  0  0  0  0  0  0
    1.8088   -2.1350   -1.7601 H   0  0  0  0  0  0  0  0  0  0  0  0
  1  2  1  0  0  0  0
  1 31  1  0  0  0  0
  1 32  1  0  0  0  0
  1 33  1  0  0  0  0
  2  3  2  0  0  0  0
  2 29  1  0  0  0  0
  3  4  1  0  0  0  0
  3 34  1  0  0  0  0
  4  5  1  0  0  0  0
  4  6  2  0  0  0  0
  5 35  1  0  0  0  0
  5 36  1  0  0  0  0
  5 37  1  0  0  0  0
  6  7  1  0  0  0  0
  6 28  1  0  0  0  0
  7  8  2  3  0  0  0
  8  9  1  0  0  0  0
  9 10  2  0  0  0  0
  9 19  1  0  0  0  0
 10 11  1  0  0  0  0
 10 12  1  0  0  0  0
 11 38  1  0  0  0  0
 12 13  2  0  0  0  0
 12 24  1  0  0  0  0
 13 14  1  0  0  0  0
 13 39  1  0  0  0  0
 14 15  2  0  0  0  0
 14 19  1  0  0  0  0
 15 16  1  0  0  0  0
 15 40  1  0  0  0  0
 16 17  2  0  0  0  0
 16 20  1  0  0  0  0
 17 18  1  0  0  0  0
 17 41  1  0  0  0  0
 18 19  2  0  0  0  0
 18 42  1  0  0  0  0
 20 21  2  0  0  0  0
 20 22  2  0  0  0  0
 20 23  1  0  0  0  0
 23 43  1  0  0  0  0
 24 25  2  0  0  0  0
 24 26  2  0  0  0  0
 24 27  1  0  0  0  0
 27 44  1  0  0  0  0
 28 29  2  0  0  0  0
 28 45  1  0  0  0  0
 29 30  1  0  0  0  0
 30 46  1  0  0  0  0
 30 47  1  0  0  0  0
 30 48  1  0  0  0  0
M  END
$$$$

 OpenBabel12201709243D

 45 48  0  0  0  0  0  0  0  0999 V2000
    1.0513    0.1347   -0.0539 O   0  0  0  0  0  0  0  0  0  0  0  0
    2.4041    0.1066   -0.0698 C   0  0  0  0  0  0  0  0  0  0  0  0
    3.0917   -1.1191   -0.1116 C   0  0  0  0  0  0  0  0  0  0  0  0
    2.3618   -2.3344   -0.1829 N   0  0  0  0  0  0  0  0  0  0  0  0
    2.9196   -3.4389   -0.0412 N   0  0  0  0  0  0  0  0  0  0  0  0
    2.2174   -4.6611   -0.2065 C   0  0  0  0  0  0  0  0  0  0  0  0
    0.9880   -4.6898   -0.8814 C   0  0  0  0  0  0  0  0  0  0  0  0
    0.2917   -5.8841   -1.0335 C   0  0  0  0  0  0  0  0  0  0  0  0
    0.7972   -7.0789   -0.5106 C   0  0  0  0  0  0  0  0  0  0  0  0
    2.0401   -7.0767    0.1696 C   0  0  0  0  0  0  0  0  0  0  0  0
    2.5887   -8.2550    0.7181 C   0  0  0  0  0  0  0  0  0  0  0  0
    3.8128   -8.2259    1.3887 C   0  0  0  0  0  0  0  0  0  0  0  0
    4.5126   -7.0294    1.5229 C   0  0  0  0  0  0  0  0  0  0  0  0
    3.9926   -5.8510    0.9909 C   0  0  0  0  0  0  0  0  0  0  0  0
    2.7569   -5.8553    0.3138 C   0  0  0  0  0  0  0  0  0  0  0  0
   -0.1914   -8.5727   -0.7114 S   0  0  0  0  0  0  0  0  0  0  0  0
   -1.4770   -8.3376   -1.5195 O   0  0  0  0  0  0  0  0  0  0  0  0
    0.5218   -9.6204   -1.5792 O   0  0  0  0  0  0  0  0  0  0  0  0
   -0.6917   -9.4113    0.6997 O   0  0  0  0  0  0  0  0  0  0  0  0
   -1.7746   -8.0297    1.7338 Na  0  0  0  0  0  0  0  0  0  0  0  0
    4.4929   -1.1302   -0.1052 C   0  0  0  0  0  0  0  0  0  0  0  0
    5.2278    0.0550   -0.0791 C   0  0  0  0  0  0  0  0  0  0  0  0
    4.5520    1.2974   -0.0585 C   0  0  0  0  0  0  0  0  0  0  0  0
    5.2497    2.5228   -0.0534 C   0  0  0  0  0  0  0  0  0  0  0  0
    4.5593    3.7354   -0.0347 C   0  0  0  0  0  0  0  0  0  0  0  0
    3.1667    3.7503   -0.0129 C   0  0  0  0  0  0  0  0  0  0  0  0
    2.4530    2.5525   -0.0168 C   0  0  0  0  0  0  0  0  0  0  0  0
    3.1286    1.3169   -0.0455 C   0  0  0  0  0  0  0  0  0  0  0  0
    7.0233   -0.1032   -0.0857 S   0  0  0  0  0  0  0  0  0  0  0  0
    7.6547    0.5868   -1.3040 O   0  0  0  0  0  0  0  0  0  0  0  0
    7.7075    0.6184    1.0849 O   0  0  0  0  0  0  0  0  0  0  0  0
    7.6878   -1.6869   -0.0957 O   0  0  0  0  0  0  0  0  0  0  0  0
    6.9964   -2.5431    1.6201 Na  0  0  0  0  0  0  0  0  0  0  0  0
    0.5022   -0.6616   -0.0436 H   0  0  0  0  0  0  0  0  0  0  0  0
    0.5631   -3.7838   -1.2971 H   0  0  0  0  0  0  0  0  0  0  0  0
   -0.6551   -5.8716   -1.5577 H   0  0  0  0  0  0  0  0  0  0  0  0
    2.0822   -9.2060    0.6403 H   0  0  0  0  0  0  0  0  0  0  0  0
    4.2207   -9.1363    1.8080 H   0  0  0  0  0  0  0  0  0  0  0  0
    5.4608   -7.0132    2.0450 H   0  0  0  0  0  0  0  0  0  0  0  0
    4.5623   -4.9386    1.1184 H   0  0  0  0  0  0  0  0  0  0  0  0
    5.0245   -2.0731   -0.1348 H   0  0  0  0  0  0  0  0  0  0  0  0
    6.3296    2.5605   -0.0696 H   0  0  0  0  0  0  0  0  0  0  0  0
    5.1071    4.6687   -0.0371 H   0  0  0  0  0  0  0  0  0  0  0  0
    2.6367    4.6939    0.0033 H   0  0  0  0  0  0  0  0  0  0  0  0
    1.3710    2.5987   -0.0026 H   0  0  0  0  0  0  0  0  0  0  0  0
  1  2  1  0  0  0  0
  1 34  1  0  0  0  0
  2  3  2  0  0  0  0
  2 28  1  0  0  0  0
  3  4  1  0  0  0  0
  3 21  1  0  0  0  0
  4  5  2  3  0  0  0
  5  6  1  0  0  0  0
  6  7  2  0  0  0  0
  6 15  1  0  0  0  0
  7  8  1  0  0  0  0
  7 35  1  0  0  0  0
  8  9  2  0  0  0  0
  8 36  1  0  0  0  0
  9 10  1  0  0  0  0
  9 16  1  0  0  0  0
 10 11  2  0  0  0  0
 10 15  1  0  0  0  0
 11 12  1  0  0  0  0
 11 37  1  0  0  0  0
 12 13  2  0  0  0  0
 12 38  1  0  0  0  0
 13 14  1  0  0  0  0
 13 39  1  0  0  0  0
 14 15  2  0  0  0  0
 14 40  1  0  0  0  0
 16 17  2  0  0  0  0
 16 18  2  0  0  0  0
 16 19  1  0  0  0  0
 19 20  1  0  0  0  0
 21 22  2  0  0  0  0
 21 41  1  0  0  0  0
 22 23  1  0  0  0  0
 22 29  1  0  0  0  0
 23 24  2  0  0  0  0
 23 28  1  0  0  0  0
 24 25  1  0  0  0  0
 24 42  1  0  0  0  0
 25 26  2  0  0  0  0
 25 43  1  0  0  0  0
 26 27  1  0  0  0  0
 26 44  1  0  0  0  0
 27 28  2  0  0  0  0
 27 45  1  0  0  0  0
 29 30  2  0  0  0  0
 29 31  2  0  0  0  0
 29 32  1  0  0  0  0
 32 33  1  0  0  0  0
M  END
$$$$

 OpenBabel12201709243D

 24 25  0  0  0  0  0  0  0  0999 V2000
    0.8522    4.0651    0.0184 O   0  0  0  0  0  0  0  0  0  0  0  0
    1.2351    2.7463    0.0148 N   0  0  0  0  0  0  0  0  0  0  0  0
    0.3757    1.8883    0.0567 O   0  0  0  0  0  0  0  0  0  0  0  0
    2.5966    2.3953   -0.0418 C   0  0  0  0  0  0  0  0  0  0  0  0
    3.1059    1.1089   -0.0528 C   0  0  0  0  0  0  0  0  0  0  0  0
    4.5149    1.2236   -0.1173 C   0  0  0  0  0  0  0  0  0  0  0  0
    4.8020    2.5730   -0.1377 C   0  0  0  0  0  0  0  0  0  0  0  0
    3.6379    3.2879   -0.0907 O   0  0  0  0  0  0  0  0  0  0  0  0
    6.1686    3.1675   -0.1736 C   0  0  0  0  0  0  0  0  0  0  0  0
    6.3836    4.5268   -0.1080 C   0  0  0  0  0  0  0  0  0  0  0  0
    8.0655    4.8383   -0.0434 S   0  0  0  0  0  0  0  0  0  0  0  0
    8.3801    3.1481   -0.1656 C   0  0  0  0  0  0  0  0  0  0  0  0
    9.6517    2.6913   -0.1705 N   0  0  0  0  0  0  0  0  0  0  0  0
    9.9869    1.4374   -0.6778 N   0  0  0  0  0  0  0  0  0  0  0  0
   11.3195    1.1274   -0.7877 C   0  0  0  0  0  0  0  0  0  0  0  0
   12.2438    1.8396   -0.4109 O   0  0  0  0  0  0  0  0  0  0  0  0
    7.3092    2.3867   -0.2569 N   0  0  0  0  0  0  0  0  0  0  0  0
   -0.1071    3.9185    0.0599 H   0  0  0  0  0  0  0  0  0  0  0  0
    2.5203    0.1987   -0.0132 H   0  0  0  0  0  0  0  0  0  0  0  0
    5.2429    0.4240   -0.1310 H   0  0  0  0  0  0  0  0  0  0  0  0
    5.6562    5.3245   -0.0585 H   0  0  0  0  0  0  0  0  0  0  0  0
   10.4345    3.3458   -0.1107 H   0  0  0  0  0  0  0  0  0  0  0  0
    9.2328    0.8860   -1.0795 H   0  0  0  0  0  0  0  0  0  0  0  0
   11.4776    0.1531   -1.2772 H   0  0  0  0  0  0  0  0  0  0  0  0
  1  2  1  0  0  0  0
  1 18  1  0  0  0  0
  2  3  2  0  0  0  0
  2  4  1  0  0  0  0
  4  5  2  0  0  0  0
  4  8  1  0  0  0  0
  5  6  1  0  0  0  0
  5 19  1  0  0  0  0
  6  7  2  0  0  0  0
  6 20  1  0  0  0  0
  7  8  1  0  0  0  0
  7  9  1  0  0  0  0
  9 10  2  0  0  0  0
  9 17  1  0  0  0  0
 10 11  1  0  0  0  0
 10 21  1  0  0  0  0
 11 12  1  0  0  0  0
 12 13  1  0  0  0  0
 12 17  2  0  0  0  0
 13 14  1  0  0  0  0
 13 22  1  0  0  0  0
 14 15  1  0  0  0  0
 14 23  1  0  0  0  0
 15 16  2  0  0  0  0
 15 24  1  0  0  0  0
M  END
$$$$

 OpenBabel12201709243D

 27 28  0  0  0  0  0  0  0  0999 V2000
    6.8843   -0.0312   -1.7878 C   0  0  0  0  0  0  0  0  0  0  0  0
    5.6541    0.0977   -0.9344 C   0  0  0  0  0  0  0  0  0  0  0  0
    4.5947   -0.4564   -1.2073 O   0  0  0  0  0  0  0  0  0  0  0  0
    5.8224    0.8918    0.1744 N   0  0  0  0  0  0  0  0  0  0  0  0
    4.7025    1.1286    1.0647 C   0  0  0  0  0  0  0  0  0  0  0  0
    5.1008    1.9767    2.2151 C   0  0  0  0  0  0  0  0  0  0  0  0
    5.0523    3.2830    2.3725 N   0  0  0  0  0  0  0  0  0  0  0  0
    5.4927    3.4371    3.6689 C   0  0  0  0  0  0  0  0  0  0  0  0
    5.8415    2.2934    4.2750 N   0  0  0  0  0  0  0  0  0  0  0  0
    5.5791    1.3200    3.3133 O   0  0  0  0  0  0  0  0  0  0  0  0
    5.5630    4.7547    4.3682 C   0  0  0  0  0  0  0  0  0  0  0  0
    5.2215    5.9832    3.8358 C   0  0  0  0  0  0  0  0  0  0  0  0
    5.4255    6.9442    4.8576 C   0  0  0  0  0  0  0  0  0  0  0  0
    5.8805    6.2562    5.9669 C   0  0  0  0  0  0  0  0  0  0  0  0
    5.9698    4.9232    5.6658 O   0  0  0  0  0  0  0  0  0  0  0  0
    6.2080    6.7986    7.2258 N   0  0  0  0  0  0  0  0  0  0  0  0
    6.1036    7.9932    7.4137 O   0  0  0  0  0  0  0  0  0  0  0  0
    6.6445    5.9643    8.2405 O   0  0  0  0  0  0  0  0  0  0  0  0
    6.6844   -0.7142   -2.6191 H   0  0  0  0  0  0  0  0  0  0  0  0
    7.7096   -0.4344   -1.1946 H   0  0  0  0  0  0  0  0  0  0  0  0
    7.1601    0.9462   -2.1932 H   0  0  0  0  0  0  0  0  0  0  0  0
    6.6993    1.3768    0.3217 H   0  0  0  0  0  0  0  0  0  0  0  0
    4.3292    0.1585    1.4117 H   0  0  0  0  0  0  0  0  0  0  0  0
    3.9027    1.6105    0.4935 H   0  0  0  0  0  0  0  0  0  0  0  0
    4.8616    6.1625    2.8311 H   0  0  0  0  0  0  0  0  0  0  0  0
    5.2584    8.0133    4.8066 H   0  0  0  0  0  0  0  0  0  0  0  0
    6.6173    5.0992    7.8009 H   0  0  0  0  0  0  0  0  0  0  0  0
  1  2  1  0  0  0  0
  1 19  1  0  0  0  0
  1 20  1  0  0  0  0
  1 21  1  0  0  0  0
  2  3  2  0  0  0  0
  2  4  1  0  0  0  0
  4  5  1  0  0  0  0
  4 22  1  0  0  0  0
  5  6  1  0  0  0  0
  5 23  1  0  0  0  0
  5 24  1  0  0  0  0
  6  7  2  0  0  0  0
  6 10  1  0  0  0  0
  7  8  1  0  0  0  0
  8  9  2  0  0  0  0
  8 11  1  0  0  0  0
  9 10  1  0  0  0  0
 11 12  2  0  0  0  0
 11 15  1  0  0  0  0
 12 13  1  0  0  0  0
 12 25  1  0  0  0  0
 13 14  2  0  0  0  0
 13 26  1  0  0  0  0
 14 15  1  0  0  0  0
 14 16  1  0  0  0  0
 16 17  2  0  0  0  0
 16 18  1  0  0  0  0
 18 27  1  0  0  0  0
M  END
$$$$

 OpenBabel12201709243D

 35 35  0  0  0  0  0  0  0  0999 V2000
    4.7199    0.5515   -2.7307 C   0  0  0  0  0  0  0  0  0  0  0  0
    4.3385    0.1855   -1.3644 N   0  0  0  0  0  0  0  0  0  0  0  0
    4.8311    1.2178   -0.4677 N   0  0  0  0  0  0  0  0  0  0  0  0
    4.4126    0.9254    0.9141 C   0  0  0  0  0  0  0  0  0  0  0  0
    4.8873    2.0144    1.8546 C   0  0  0  0  0  0  0  0  0  0  0  0
    4.3953    3.3227    1.7253 C   0  0  0  0  0  0  0  0  0  0  0  0
    4.8680    4.3443    2.5502 C   0  0  0  0  0  0  0  0  0  0  0  0
    5.8337    4.0778    3.5272 C   0  0  0  0  0  0  0  0  0  0  0  0
    6.2964    2.7665    3.6949 C   0  0  0  0  0  0  0  0  0  0  0  0
    5.8282    1.7439    2.8593 C   0  0  0  0  0  0  0  0  0  0  0  0
    6.3086    5.2127    4.3660 C   0  0  0  0  0  0  0  0  0  0  0  0
    5.5904    6.1934    4.5280 O   0  0  0  0  0  0  0  0  0  0  0  0
    7.5814    5.1115    4.8941 N   0  0  0  0  0  0  0  0  0  0  0  0
    8.1847    6.2299    5.6106 C   0  0  0  0  0  0  0  0  0  0  0  0
    9.2172    5.7210    6.6099 C   0  0  0  0  0  0  0  0  0  0  0  0
    8.8176    7.2234    4.6375 C   0  0  0  0  0  0  0  0  0  0  0  0
    4.3804   -0.2228   -3.4253 H   0  0  0  0  0  0  0  0  0  0  0  0
    5.8069    0.6450   -2.8325 H   0  0  0  0  0  0  0  0  0  0  0  0
    4.2514    1.4946   -3.0333 H   0  0  0  0  0  0  0  0  0  0  0  0
    4.7791   -0.7150   -1.1501 H   0  0  0  0  0  0  0  0  0  0  0  0
    4.4300    2.1253   -0.7212 H   0  0  0  0  0  0  0  0  0  0  0  0
    4.8311   -0.0398    1.2273 H   0  0  0  0  0  0  0  0  0  0  0  0
    3.3204    0.8468    0.9892 H   0  0  0  0  0  0  0  0  0  0  0  0
    3.6472    3.5588    0.9721 H   0  0  0  0  0  0  0  0  0  0  0  0
    4.4872    5.3562    2.4221 H   0  0  0  0  0  0  0  0  0  0  0  0
    7.0033    2.5181    4.4809 H   0  0  0  0  0  0  0  0  0  0  0  0
    6.2039    0.7316    2.9985 H   0  0  0  0  0  0  0  0  0  0  0  0
    8.1979    4.3963    4.5336 H   0  0  0  0  0  0  0  0  0  0  0  0
    7.3920    6.7477    6.1639 H   0  0  0  0  0  0  0  0  0  0  0  0
   10.0274    5.1814    6.1072 H   0  0  0  0  0  0  0  0  0  0  0  0
    8.7550    5.0327    7.3257 H   0  0  0  0  0  0  0  0  0  0  0  0
    9.6567    6.5507    7.1734 H   0  0  0  0  0  0  0  0  0  0  0  0
    9.6220    6.7556    4.0592 H   0  0  0  0  0  0  0  0  0  0  0  0
    9.2388    8.0793    5.1758 H   0  0  0  0  0  0  0  0  0  0  0  0
    8.0787    7.6057    3.9252 H   0  0  0  0  0  0  0  0  0  0  0  0
  1  2  1  0  0  0  0
  1 17  1  0  0  0  0
  1 18  1  0  0  0  0
  1 19  1  0  0  0  0
  2  3  1  0  0  0  0
  2 20  1  0  0  0  0
  3  4  1  0  0  0  0
  3 21  1  0  0  0  0
  4  5  1  0  0  0  0
  4 22  1  0  0  0  0
  4 23  1  0  0  0  0
  5  6  2  0  0  0  0
  5 10  1  0  0  0  0
  6  7  1  0  0  0  0
  6 24  1  0  0  0  0
  7  8  2  0  0  0  0
  7 25  1  0  0  0  0
  8  9  1  0  0  0  0
  8 11  1  0  0  0  0
  9 10  2  0  0  0  0
  9 26  1  0  0  0  0
 10 27  1  0  0  0  0
 11 12  2  0  0  0  0
 11 13  1  0  0  0  0
 13 14  1  0  0  0  0
 13 28  1  0  0  0  0
 14 15  1  0  0  0  0
 14 16  1  0  0  0  0
 14 29  1  0  0  0  0
 15 30  1  0  0  0  0
 15 31  1  0  0  0  0
 15 32  1  0  0  0  0
 16 33  1  0  0  0  0
 16 34  1  0  0  0  0
 16 35  1  0  0  0  0
M  END
$$$$

 OpenBabel12201709243D

 27 28  0  0  0  0  0  0  0  0999 V2000
    3.2254    1.2850   -0.3458 N   0  0  0  0  0  0  0  0  0  0  0  0
    2.5209    0.1364   -0.1253 C   0  0  0  0  0  0  0  0  0  0  0  0
    1.4266    0.0003   -0.6597 O   0  0  0  0  0  0  0  0  0  0  0  0
    3.1875   -0.8962    0.7560 C   0  0  0  0  0  0  0  0  0  0  0  0
    2.5101   -1.8359    1.4483 C   0  0  0  0  0  0  0  0  0  0  0  0
    1.0958   -1.9379    1.5513 C   0  0  0  0  0  0  0  0  0  0  0  0
    0.3233   -3.0716    1.7791 C   0  0  0  0  0  0  0  0  0  0  0  0
   -1.0389   -2.6845    1.7476 C   0  0  0  0  0  0  0  0  0  0  0  0
   -1.0470   -1.3249    1.5240 C   0  0  0  0  0  0  0  0  0  0  0  0
    0.2376   -0.8701    1.4849 O   0  0  0  0  0  0  0  0  0  0  0  0
   -2.1621   -0.4883    1.3434 N   0  0  0  0  0  0  0  0  0  0  0  0
   -3.2843   -0.9443    1.4267 O   0  0  0  0  0  0  0  0  0  0  0  0
   -1.9634    0.8548    1.0667 O   0  0  0  0  0  0  0  0  0  0  0  0
    4.6261   -0.9208    0.8235 C   0  0  0  0  0  0  0  0  0  0  0  0
    5.4809   -1.3331    1.8471 C   0  0  0  0  0  0  0  0  0  0  0  0
    6.8156   -1.1457    1.4163 C   0  0  0  0  0  0  0  0  0  0  0  0
    6.7297   -0.6266    0.1523 C   0  0  0  0  0  0  0  0  0  0  0  0
    5.4343   -0.4760   -0.2076 O   0  0  0  0  0  0  0  0  0  0  0  0
    2.8478    1.9206   -1.0354 H   0  0  0  0  0  0  0  0  0  0  0  0
    4.2159    1.3436   -0.1427 H   0  0  0  0  0  0  0  0  0  0  0  0
    3.0578   -2.6064    1.9856 H   0  0  0  0  0  0  0  0  0  0  0  0
    0.7042   -4.0756    1.9093 H   0  0  0  0  0  0  0  0  0  0  0  0
   -1.9123   -3.3165    1.8419 H   0  0  0  0  0  0  0  0  0  0  0  0
   -0.9954    0.8809    0.9714 H   0  0  0  0  0  0  0  0  0  0  0  0
    5.1718   -1.7182    2.8099 H   0  0  0  0  0  0  0  0  0  0  0  0
    7.7240   -1.3617    1.9610 H   0  0  0  0  0  0  0  0  0  0  0  0
    7.4604   -0.3220   -0.5850 H   0  0  0  0  0  0  0  0  0  0  0  0
  1  2  1  0  0  0  0
  1 19  1  0  0  0  0
  1 20  1  0  0  0  0
  2  3  2  0  0  0  0
  2  4  1  0  0  0  0
  4  5  2  3  0  0  0
  4 14  1  0  0  0  0
  5  6  1  0  0  0  0
  5 21  1  0  0  0  0
  6  7  2  0  0  0  0
  6 10  1  0  0  0  0
  7  8  1  0  0  0  0
  7 22  1  0  0  0  0
  8  9  2  0  0  0  0
  8 23  1  0  0  0  0
  9 10  1  0  0  0  0
  9 11  1  0  0  0  0
 11 12  2  0  0  0  0
 11 13  1  0  0  0  0
 13 24  1  0  0  0  0
 14 15  2  0  0  0  0
 14 18  1  0  0  0  0
 15 16  1  0  0  0  0
 15 25  1  0  0  0  0
 16 17  2  0  0  0  0
 16 26  1  0  0  0  0
 17 18  1  0  0  0  0
 17 27  1  0  0  0  0
M  END
$$$$

 OpenBabel12201709243D

 45 47  0  0  0  0  0  0  0  0999 V2000
    1.1588    0.7691    0.6970 C   0  0  0  0  0  0  0  0  0  0  0  0
    2.6011    0.5150    0.3738 C   0  0  0  0  0  0  0  0  0  0  0  0
    3.6189    0.9202    1.2362 C   0  0  0  0  0  0  0  0  0  0  0  0
    4.9572    0.7919    0.8523 C   0  0  0  0  0  0  0  0  0  0  0  0
    5.3116    0.2731   -0.4068 C   0  0  0  0  0  0  0  0  0  0  0  0
    6.6417    0.2615   -0.8932 N   0  0  0  0  0  0  0  0  0  0  0  0
    7.4130    1.0206   -0.2725 N   0  0  0  0  0  0  0  0  0  0  0  0
    8.7481    0.9588   -0.7521 C   0  0  0  0  0  0  0  0  0  0  0  0
    9.3947    2.1947   -0.9781 C   0  0  0  0  0  0  0  0  0  0  0  0
    8.6858    3.3664   -0.8291 O   0  0  0  0  0  0  0  0  0  0  0  0
   10.7383    2.2383   -1.3338 C   0  0  0  0  0  0  0  0  0  0  0  0
   11.4626    1.0552   -1.4888 C   0  0  0  0  0  0  0  0  0  0  0  0
   10.8490   -0.1877   -1.2942 C   0  0  0  0  0  0  0  0  0  0  0  0
   11.6001   -1.3600   -1.4659 C   0  0  0  0  0  0  0  0  0  0  0  0
   11.0027   -2.6098   -1.2949 C   0  0  0  0  0  0  0  0  0  0  0  0
    9.6708   -2.7156   -0.9237 C   0  0  0  0  0  0  0  0  0  0  0  0
    8.9309   -1.5522   -0.7175 C   0  0  0  0  0  0  0  0  0  0  0  0
    9.4804   -0.2593   -0.9157 C   0  0  0  0  0  0  0  0  0  0  0  0
   11.9812   -4.0703   -1.4724 S   0  0  0  0  0  0  0  0  0  0  0  0
   11.3789   -5.1134   -0.6655 O   0  0  0  0  0  0  0  0  0  0  0  0
   12.2599   -4.2424   -2.8788 O   0  0  0  0  0  0  0  0  0  0  0  0
   13.3565   -3.7046   -0.7173 O   0  0  0  0  0  0  0  0  0  0  0  0
   11.5855    3.7702   -1.6015 S   0  0  0  0  0  0  0  0  0  0  0  0
   12.0533    4.2085   -0.3039 O   0  0  0  0  0  0  0  0  0  0  0  0
   12.4958    3.5667   -2.7095 O   0  0  0  0  0  0  0  0  0  0  0  0
   10.4573    4.8159   -2.0900 O   0  0  0  0  0  0  0  0  0  0  0  0
    4.2881   -0.2503   -1.2203 C   0  0  0  0  0  0  0  0  0  0  0  0
    4.5695   -0.9576   -2.5188 C   0  0  0  0  0  0  0  0  0  0  0  0
    2.9442   -0.1175   -0.8252 C   0  0  0  0  0  0  0  0  0  0  0  0
    1.0512    1.3693    1.6064 H   0  0  0  0  0  0  0  0  0  0  0  0
    0.6204   -0.1724    0.8358 H   0  0  0  0  0  0  0  0  0  0  0  0
    0.6949    1.3324   -0.1208 H   0  0  0  0  0  0  0  0  0  0  0  0
    3.3826    1.3665    2.1997 H   0  0  0  0  0  0  0  0  0  0  0  0
    5.7257    1.1263    1.5450 H   0  0  0  0  0  0  0  0  0  0  0  0
    7.7598    3.1037   -0.6328 H   0  0  0  0  0  0  0  0  0  0  0  0
   12.5171    1.1093   -1.7633 H   0  0  0  0  0  0  0  0  0  0  0  0
   12.6533   -1.3048   -1.7421 H   0  0  0  0  0  0  0  0  0  0  0  0
    9.1988   -3.6862   -0.7865 H   0  0  0  0  0  0  0  0  0  0  0  0
    7.8975   -1.6799   -0.4032 H   0  0  0  0  0  0  0  0  0  0  0  0
   13.3426   -4.1524    0.1577 H   0  0  0  0  0  0  0  0  0  0  0  0
    9.6975    4.7647   -1.4664 H   0  0  0  0  0  0  0  0  0  0  0  0
    5.6316   -0.9706   -2.7776 H   0  0  0  0  0  0  0  0  0  0  0  0
    4.0339   -0.4651   -3.3363 H   0  0  0  0  0  0  0  0  0  0  0  0
    4.2360   -1.9994   -2.4512 H   0  0  0  0  0  0  0  0  0  0  0  0
    2.1552   -0.4887   -1.4783 H   0  0  0  0  0  0  0  0  0  0  0  0
  1  2  1  0  0  0  0
  1 30  1  0  0  0  0
  1 31  1  0  0  0  0
  1 32  1  0  0  0  0
  2  3  2  0  0  0  0
  2 29  1  0  0  0  0
  3  4  1  0  0  0  0
  3 33  1  0  0  0  0
  4  5  2  0  0  0  0
  4 34  1  0  0  0  0
  5  6  1  0  0  0  0
  5 27  1  0  0  0  0
  6  7  2  3  0  0  0
  7  8  1  0  0  0  0
  8  9  2  0  0  0  0
  8 18  1  0  0  0  0
  9 10  1  0  0  0  0
  9 11  1  0  0  0  0
 10 35  1  0  0  0  0
 11 12  2  0  0  0  0
 11 23  1  0  0  0  0
 12 13  1  0  0  0  0
 12 36  1  0  0  0  0
 13 14  2  0  0  0  0
 13 18  1  0  0  0  0
 14 15  1  0  0  0  0
 14 37  1  0  0  0  0
 15 16  2  0  0  0  0
 15 19  1  0  0  0  0
 16 17  1  0  0  0  0
 16 38  1  0  0  0  0
 17 18  2  0  0  0  0
 17 39  1  0  0  0  0
 19 20  2  0  0  0  0
 19 21  2  0  0  0  0
 19 22  1  0  0  0  0
 22 40  1  0  0  0  0
 23 24  2  0  0  0  0
 23 25  2  0  0  0  0
 23 26  1  0  0  0  0
 26 41  1  0  0  0  0
 27 28  1  0  0  0  0
 27 29  2  0  0  0  0
 28 42  1  0  0  0  0
 28 43  1  0  0  0  0
 28 44  1  0  0  0  0
 29 45  1  0  0  0  0
M  END
$$$$

 OpenBabel12201709243D

 45 47  0  0  1  0  0  0  0  0999 V2000
    1.3277   -0.2979   -2.6143 C   0  0  0  0  0  0  0  0  0  0  0  0
    2.3144    0.0054   -1.4757 C   0  0  0  0  0  0  0  0  0  0  0  0
    1.6421    0.6612   -0.2620 C   0  0  0  0  0  0  0  0  0  0  0  0
    3.1650   -1.1161   -1.0900 O   0  0  0  0  0  0  0  0  0  0  0  0
    2.6862   -2.3878   -0.9330 C   0  0  0  0  0  0  0  0  0  0  0  0
    3.6267   -3.4309   -0.9293 C   0  0  0  0  0  0  0  0  0  0  0  0
    3.2386   -4.7863   -0.7493 C   0  0  0  0  0  0  0  0  0  0  0  0
    1.8916   -5.1116   -0.5823 C   0  0  0  0  0  0  0  0  0  0  0  0
    0.9690   -4.0475   -0.6022 C   0  0  0  0  0  0  0  0  0  0  0  0
    1.3595   -2.7172   -0.7329 C   0  0  0  0  0  0  0  0  0  0  0  0
    1.3215   -6.4413   -0.0935 C   0  0  3  0  0  0  0  0  0  0  0  0
    1.3036   -6.4016    1.4557 C   0  0  0  0  0  0  0  0  0  0  0  0
    2.2753   -7.3903    2.0704 C   0  0  0  0  0  0  0  0  0  0  0  0
    1.8578   -8.7940    1.6674 C   0  0  0  0  0  0  0  0  0  0  0  0
    1.7617   -8.9367    0.1690 C   0  0  0  0  0  0  0  0  0  0  0  0
    1.6531  -10.2365   -0.3518 C   0  0  0  0  0  0  0  0  0  0  0  0
    1.4912  -10.4393   -1.7160 C   0  0  0  0  0  0  0  0  0  0  0  0
    1.4772   -9.3447   -2.5752 C   0  0  0  0  0  0  0  0  0  0  0  0
    1.5660   -8.0357   -2.0682 C   0  0  0  0  0  0  0  0  0  0  0  0
    1.6641   -7.8095   -0.6851 C   0  0  0  0  0  0  0  0  0  0  0  0
    3.2896    1.0692   -2.0374 C   0  0  0  0  0  0  0  0  0  0  0  0
    2.9629    2.1732   -2.4374 O   0  0  0  0  0  0  0  0  0  0  0  0
    4.5883    0.6617   -2.0437 O   0  0  0  0  0  0  0  0  0  0  0  0
    0.4050   -0.7616   -2.2565 H   0  0  0  0  0  0  0  0  0  0  0  0
    1.7739   -0.9738   -3.3509 H   0  0  0  0  0  0  0  0  0  0  0  0
    1.0096    0.6127   -3.1338 H   0  0  0  0  0  0  0  0  0  0  0  0
    0.9544   -0.0113    0.2573 H   0  0  0  0  0  0  0  0  0  0  0  0
    1.0720    1.5516   -0.5570 H   0  0  0  0  0  0  0  0  0  0  0  0
    2.3866    0.9797    0.4779 H   0  0  0  0  0  0  0  0  0  0  0  0
    4.6851   -3.1975   -1.0356 H   0  0  0  0  0  0  0  0  0  0  0  0
    4.0096   -5.5527   -0.6933 H   0  0  0  0  0  0  0  0  0  0  0  0
   -0.0879   -4.2429   -0.4226 H   0  0  0  0  0  0  0  0  0  0  0  0
    0.5851   -1.9739   -0.6220 H   0  0  0  0  0  0  0  0  0  0  0  0
    0.2568   -6.3841   -0.3770 H   0  0  0  0  0  0  0  0  0  0  0  0
    0.2877   -6.6487    1.7914 H   0  0  0  0  0  0  0  0  0  0  0  0
    1.5088   -5.3982    1.8476 H   0  0  0  0  0  0  0  0  0  0  0  0
    2.2571   -7.2978    3.1619 H   0  0  0  0  0  0  0  0  0  0  0  0
    3.2997   -7.1778    1.7395 H   0  0  0  0  0  0  0  0  0  0  0  0
    0.8774   -9.0284    2.1017 H   0  0  0  0  0  0  0  0  0  0  0  0
    2.5821   -9.5127    2.0676 H   0  0  0  0  0  0  0  0  0  0  0  0
    1.6455  -11.0947    0.3191 H   0  0  0  0  0  0  0  0  0  0  0  0
    1.3576  -11.4463   -2.1019 H   0  0  0  0  0  0  0  0  0  0  0  0
    1.3421   -9.5068   -3.6421 H   0  0  0  0  0  0  0  0  0  0  0  0
    1.4718   -7.2053   -2.7591 H   0  0  0  0  0  0  0  0  0  0  0  0
    4.6371   -0.2474   -1.6692 H   0  0  0  0  0  0  0  0  0  0  0  0
  1  2  1  0  0  0  0
  1 24  1  0  0  0  0
  1 25  1  0  0  0  0
  1 26  1  0  0  0  0
  2  3  1  0  0  0  0
  2  4  1  0  0  0  0
  2 21  1  0  0  0  0
  3 27  1  0  0  0  0
  3 28  1  0  0  0  0
  3 29  1  0  0  0  0
  4  5  1  0  0  0  0
  5  6  2  0  0  0  0
  5 10  1  0  0  0  0
  6  7  1  0  0  0  0
  6 30  1  0  0  0  0
  7  8  2  0  0  0  0
  7 31  1  0  0  0  0
  8  9  1  0  0  0  0
  8 11  1  0  0  0  0
  9 10  2  0  0  0  0
  9 32  1  0  0  0  0
 10 33  1  0  0  0  0
 11 12  1  0  0  0  0
 11 20  1  0  0  0  0
 11 34  1  0  0  0  0
 12 13  1  0  0  0  0
 12 35  1  0  0  0  0
 12 36  1  0  0  0  0
 13 14  1  0  0  0  0
 13 37  1  0  0  0  0
 13 38  1  0  0  0  0
 14 15  1  0  0  0  0
 14 39  1  0  0  0  0
 14 40  1  0  0  0  0
 15 16  2  0  0  0  0
 15 20  1  0  0  0  0
 16 17  1  0  0  0  0
 16 41  1  0  0  0  0
 17 18  2  0  0  0  0
 17 42  1  0  0  0  0
 18 19  1  0  0  0  0
 18 43  1  0  0  0  0
 19 20  2  0  0  0  0
 19 44  1  0  0  0  0
 21 22  2  0  0  0  0
 21 23  1  0  0  0  0
 23 45  1  0  0  0  0
M  END
$$$$

 OpenBabel12201709243D

 29 29  0  0  0  0  0  0  0  0999 V2000
    1.9959    0.1397   -1.3533 Cl  0  0  0  0  0  0  0  0  0  0  0  0
    3.5883   -0.5290   -1.8454 C   0  0  0  0  0  0  0  0  0  0  0  0
    4.7442    0.3481   -1.3391 C   0  0  0  0  0  0  0  0  0  0  0  0
    4.6283    0.4078    0.0941 N   0  0  0  0  0  0  0  0  0  0  0  0
    5.5952    1.1122    1.1863 P   0  0  3  0  0  0  0  0  0  0  0  0
    6.3316    2.3283    0.7069 O   0  0  0  0  0  0  0  0  0  0  0  0
    6.6023   -0.0666    1.5994 O   0  0  0  0  0  0  0  0  0  0  0  0
    6.2625   -0.9444    2.6476 C   0  0  0  0  0  0  0  0  0  0  0  0
    4.7590   -1.1429    2.7957 C   0  0  0  0  0  0  0  0  0  0  0  0
    4.0315    0.1724    3.1310 C   0  0  0  0  0  0  0  0  0  0  0  0
    4.5255    1.3483    2.4075 N   0  0  0  0  0  0  0  0  0  0  0  0
    3.4763    2.3377    2.0738 C   0  0  0  0  0  0  0  0  0  0  0  0
    2.5243    2.8725    3.1381 C   0  0  0  0  0  0  0  0  0  0  0  0
    1.4493    4.0907    2.3731 Cl  0  0  0  0  0  0  0  0  0  0  0  0
    3.5966   -0.6169   -2.9284 H   0  0  0  0  0  0  0  0  0  0  0  0
    3.6509   -1.5277   -1.3978 H   0  0  0  0  0  0  0  0  0  0  0  0
    4.7066    1.3367   -1.8049 H   0  0  0  0  0  0  0  0  0  0  0  0
    5.6968   -0.1144   -1.6057 H   0  0  0  0  0  0  0  0  0  0  0  0
    3.6711    0.2739    0.3905 H   0  0  0  0  0  0  0  0  0  0  0  0
    6.6988   -0.5528    3.5683 H   0  0  0  0  0  0  0  0  0  0  0  0
    6.7459   -1.9014    2.4361 H   0  0  0  0  0  0  0  0  0  0  0  0
    4.5665   -1.8929    3.5633 H   0  0  0  0  0  0  0  0  0  0  0  0
    4.3644   -1.5491    1.8517 H   0  0  0  0  0  0  0  0  0  0  0  0
    4.1434    0.3450    4.2078 H   0  0  0  0  0  0  0  0  0  0  0  0
    2.9626    0.0005    2.9389 H   0  0  0  0  0  0  0  0  0  0  0  0
    2.8542    1.9161    1.2775 H   0  0  0  0  0  0  0  0  0  0  0  0
    3.9923    3.1995    1.6392 H   0  0  0  0  0  0  0  0  0  0  0  0
    3.0515    3.3730    3.9515 H   0  0  0  0  0  0  0  0  0  0  0  0
    1.8700    2.0944    3.5388 H   0  0  0  0  0  0  0  0  0  0  0  0
  1  2  1  0  0  0  0
  2  3  1  0  0  0  0
  2 15  1  0  0  0  0
  2 16  1  0  0  0  0
  3  4  1  0  0  0  0
  3 17  1  0  0  0  0
  3 18  1  0  0  0  0
  4  5  1  0  0  0  0
  4 19  1  0  0  0  0
  5  6  2  0  0  0  0
  5  7  1  0  0  0  0
  5 11  1  0  0  0  0
  7  8  1  0  0  0  0
  8  9  1  0  0  0  0
  8 20  1  0  0  0  0
  8 21  1  0  0  0  0
  9 10  1  0  0  0  0
  9 22  1  0  0  0  0
  9 23  1  0  0  0  0
 10 11  1  0  0  0  0
 10 24  1  0  0  0  0
 10 25  1  0  0  0  0
 11 12  1  0  0  0  0
 12 13  1  0  0  0  0
 12 26  1  0  0  0  0
 12 27  1  0  0  0  0
 13 14  1  0  0  0  0
 13 28  1  0  0  0  0
 13 29  1  0  0  0  0
M  END
$$$$

 OpenBabel12201709243D

 30 29  0  0  0  0  0  0  0  0999 V2000
    1.1628    0.3257    0.3706 C   0  0  0  0  0  0  0  0  0  0  0  0
    2.6694    0.2160    0.1952 C   0  0  0  0  0  0  0  0  0  0  0  0
    3.0597   -1.1774   -0.3088 C   0  0  0  0  0  0  0  0  0  0  0  0
    4.5794   -1.3197   -0.4505 C   0  0  0  0  0  0  0  0  0  0  0  0
    5.1042   -2.5296   -1.1213 N   0  0  0  0  0  0  0  0  0  0  0  0
    4.2328   -3.7200   -1.1439 C   0  0  0  0  0  0  0  0  0  0  0  0
    4.7476   -4.7279   -2.1945 C   0  0  0  0  0  0  0  0  0  0  0  0
    3.8313   -5.9255   -2.4366 C   0  0  0  0  0  0  0  0  0  0  0  0
    4.4369   -6.8191   -3.5184 C   0  0  0  0  0  0  0  0  0  0  0  0
    3.5845   -7.9217   -3.7833 O   0  0  0  0  0  0  0  0  0  0  0  0
    6.3547   -2.8109   -0.8041 N   0  0  0  0  0  0  0  0  0  0  0  0
    7.1137   -1.8740   -1.0710 O   0  0  0  0  0  0  0  0  0  0  0  0
    0.8867    1.3324    0.6986 H   0  0  0  0  0  0  0  0  0  0  0  0
    0.8057   -0.3876    1.1203 H   0  0  0  0  0  0  0  0  0  0  0  0
    0.6446    0.1206   -0.5718 H   0  0  0  0  0  0  0  0  0  0  0  0
    3.1637    0.4307    1.1500 H   0  0  0  0  0  0  0  0  0  0  0  0
    3.0035    0.9768   -0.5205 H   0  0  0  0  0  0  0  0  0  0  0  0
    2.5700   -1.3466   -1.2739 H   0  0  0  0  0  0  0  0  0  0  0  0
    2.6897   -1.9304    0.3981 H   0  0  0  0  0  0  0  0  0  0  0  0
    5.0083   -1.2261    0.5583 H   0  0  0  0  0  0  0  0  0  0  0  0
    4.9443   -0.4534   -1.0211 H   0  0  0  0  0  0  0  0  0  0  0  0
    3.2196   -3.4495   -1.4488 H   0  0  0  0  0  0  0  0  0  0  0  0
    4.1671   -4.1901   -0.1542 H   0  0  0  0  0  0  0  0  0  0  0  0
    5.7296   -5.1092   -1.8915 H   0  0  0  0  0  0  0  0  0  0  0  0
    4.8847   -4.2002   -3.1473 H   0  0  0  0  0  0  0  0  0  0  0  0
    2.8336   -5.5964   -2.7513 H   0  0  0  0  0  0  0  0  0  0  0  0
    3.6881   -6.5024   -1.5151 H   0  0  0  0  0  0  0  0  0  0  0  0
    5.4204   -7.1982   -3.2180 H   0  0  0  0  0  0  0  0  0  0  0  0
    4.5637   -6.2606   -4.4520 H   0  0  0  0  0  0  0  0  0  0  0  0
    3.6967   -8.5581   -3.0570 H   0  0  0  0  0  0  0  0  0  0  0  0
  1  2  1  0  0  0  0
  1 13  1  0  0  0  0
  1 14  1  0  0  0  0
  1 15  1  0  0  0  0
  2  3  1  0  0  0  0
  2 16  1  0  0  0  0
  2 17  1  0  0  0  0
  3  4  1  0  0  0  0
  3 18  1  0  0  0  0
  3 19  1  0  0  0  0
  4  5  1  0  0  0  0
  4 20  1  0  0  0  0
  4 21  1  0  0  0  0
  5  6  1  0  0  0  0
  5 11  1  0  0  0  0
  6  7  1  0  0  0  0
  6 22  1  0  0  0  0
  6 23  1  0  0  0  0
  7  8  1  0  0  0  0
  7 24  1  0  0  0  0
  7 25  1  0  0  0  0
  8  9  1  0  0  0  0
  8 26  1  0  0  0  0
  8 27  1  0  0  0  0
  9 10  1  0  0  0  0
  9 28  1  0  0  0  0
  9 29  1  0  0  0  0
 10 30  1  0  0  0  0
 11 12  2  0  0  0  0
M  END
$$$$

 OpenBabel12201709243D

 12 11  0  0  0  0  0  0  0  0999 V2000
    0.9500   -0.0697   -0.0349 C   0  0  0  0  0  0  0  0  0  0  0  0
    2.4668    0.0092   -0.0867 C   0  0  0  0  0  0  0  0  0  0  0  0
    2.8971    1.2341   -0.8011 N   0  0  0  0  0  0  0  0  0  0  0  0
    3.2069    1.1991   -2.1982 N   0  0  0  0  0  0  0  0  0  0  0  0
    2.9633    0.1153   -2.7374 O   0  0  0  0  0  0  0  0  0  0  0  0
    3.1929    2.3968   -0.2057 C   0  0  0  0  0  0  0  0  0  0  0  0
    3.4447    3.3904    0.3365 N   0  0  0  0  0  0  0  0  0  0  0  0
    0.6372   -0.9550    0.5284 H   0  0  0  0  0  0  0  0  0  0  0  0
    0.5204   -0.1354   -1.0394 H   0  0  0  0  0  0  0  0  0  0  0  0
    0.5241    0.8119    0.4558 H   0  0  0  0  0  0  0  0  0  0  0  0
    2.8787   -0.8930   -0.5510 H   0  0  0  0  0  0  0  0  0  0  0  0
    2.8615    0.0351    0.9366 H   0  0  0  0  0  0  0  0  0  0  0  0
  1  2  1  0  0  0  0
  1  8  1  0  0  0  0
  1  9  1  0  0  0  0
  1 10  1  0  0  0  0
  2  3  1  0  0  0  0
  2 11  1  0  0  0  0
  2 12  1  0  0  0  0
  3  4  1  0  0  0  0
  3  6  1  0  0  0  0
  4  5  2  0  0  0  0
  6  7  3  0  0  0  0
M  END
$$$$

 OpenBabel12201709243D

 20 21  0  0  0  0  0  0  0  0999 V2000
    1.1120    0.1864   -0.0775 N   0  0  0  0  0  0  0  0  0  0  0  0
    2.4460    0.0815   -0.0014 C   0  0  0  0  0  0  0  0  0  0  0  0
    3.2504    1.1153    0.0415 N   0  0  0  0  0  0  0  0  0  0  0  0
    4.5645    0.6834    0.0742 C   0  0  0  0  0  0  0  0  0  0  0  0
    4.7391   -0.6840    0.0821 C   0  0  0  0  0  0  0  0  0  0  0  0
    3.2119   -1.4566    0.0454 S   0  0  0  0  0  0  0  0  0  0  0  0
    5.7151    1.6305    0.0932 C   0  0  0  0  0  0  0  0  0  0  0  0
    5.6318    3.0081    0.0868 C   0  0  0  0  0  0  0  0  0  0  0  0
    6.9607    3.4980    0.1066 C   0  0  0  0  0  0  0  0  0  0  0  0
    7.7912    2.3929    0.1230 C   0  0  0  0  0  0  0  0  0  0  0  0
    7.0300    1.2535    0.1153 O   0  0  0  0  0  0  0  0  0  0  0  0
    9.1996    2.3902    0.1437 N   0  0  0  0  0  0  0  0  0  0  0  0
    9.8078    3.4406    0.1497 O   0  0  0  0  0  0  0  0  0  0  0  0
    9.8815    1.1849    0.1547 O   0  0  0  0  0  0  0  0  0  0  0  0
    0.7016    1.0908    0.1211 H   0  0  0  0  0  0  0  0  0  0  0  0
    0.5339   -0.6153    0.1397 H   0  0  0  0  0  0  0  0  0  0  0  0
    5.6597   -1.2485    0.1035 H   0  0  0  0  0  0  0  0  0  0  0  0
    4.7162    3.5846    0.0681 H   0  0  0  0  0  0  0  0  0  0  0  0
    7.2848    4.5309    0.1067 H   0  0  0  0  0  0  0  0  0  0  0  0
    9.1459    0.5523    0.1415 H   0  0  0  0  0  0  0  0  0  0  0  0
  1  2  1  0  0  0  0
  1 15  1  0  0  0  0
  1 16  1  0  0  0  0
  2  3  2  0  0  0  0
  2  6  1  0  0  0  0
  3  4  1  0  0  0  0
  4  5  2  0  0  0  0
  4  7  1  0  0  0  0
  5  6  1  0  0  0  0
  5 17  1  0  0  0  0
  7  8  2  0  0  0  0
  7 11  1  0  0  0  0
  8  9  1  0  0  0  0
  8 18  1  0  0  0  0
  9 10  2  0  0  0  0
  9 19  1  0  0  0  0
 10 11  1  0  0  0  0
 10 12  1  0  0  0  0
 12 13  2  0  0  0  0
 12 14  1  0  0  0  0
 14 20  1  0  0  0  0
M  END
$$$$

 OpenBabel12201709243D

 31 31  0  0  0  0  0  0  0  0999 V2000
    2.9842    0.7352   -0.7891 C   0  0  0  0  0  0  0  0  0  0  0  0
    2.7543    0.5480    0.7135 C   0  0  0  0  0  0  0  0  0  0  0  0
    1.2836    0.8031    1.0390 C   0  0  0  0  0  0  0  0  0  0  0  0
    3.0632   -0.7893    1.1519 O   0  0  0  0  0  0  0  0  0  0  0  0
    4.3639   -1.2069    1.0300 C   0  0  0  0  0  0  0  0  0  0  0  0
    5.4589   -0.3371    1.0675 C   0  0  0  0  0  0  0  0  0  0  0  0
    6.7672   -0.8133    0.9232 C   0  0  0  0  0  0  0  0  0  0  0  0
    6.9995   -2.1747    0.7612 C   0  0  0  0  0  0  0  0  0  0  0  0
    5.9228   -3.0612    0.7613 C   0  0  0  0  0  0  0  0  0  0  0  0
    4.6152   -2.5772    0.8937 C   0  0  0  0  0  0  0  0  0  0  0  0
    3.6315   -3.5823    1.0342 O   0  0  0  0  0  0  0  0  0  0  0  0
    2.5140   -3.7028    0.1965 C   0  0  0  0  0  0  0  0  0  0  0  0
    2.2029   -2.8790   -0.6614 O   0  0  0  0  0  0  0  0  0  0  0  0
    1.8225   -4.9006    0.4061 N   0  0  0  0  0  0  0  0  0  0  0  0
    0.6715   -5.2569   -0.4043 C   0  0  0  0  0  0  0  0  0  0  0  0
    2.3206   -5.8118    1.3471 N   0  0  0  0  0  0  0  0  0  0  0  0
    1.6828   -6.8698    1.4056 O   0  0  0  0  0  0  0  0  0  0  0  0
    2.6132    1.7083   -1.1275 H   0  0  0  0  0  0  0  0  0  0  0  0
    2.4909   -0.0532   -1.3663 H   0  0  0  0  0  0  0  0  0  0  0  0
    4.0483    0.6921   -1.0408 H   0  0  0  0  0  0  0  0  0  0  0  0
    3.3304    1.2836    1.2849 H   0  0  0  0  0  0  0  0  0  0  0  0
    0.6489   -0.0082    0.6673 H   0  0  0  0  0  0  0  0  0  0  0  0
    0.9368    1.7493    0.6114 H   0  0  0  0  0  0  0  0  0  0  0  0
    1.1410    0.8495    2.1242 H   0  0  0  0  0  0  0  0  0  0  0  0
    5.3356    0.7290    1.2232 H   0  0  0  0  0  0  0  0  0  0  0  0
    7.6031   -0.1180    0.9565 H   0  0  0  0  0  0  0  0  0  0  0  0
    8.0146   -2.5474    0.6590 H   0  0  0  0  0  0  0  0  0  0  0  0
    6.1037   -4.1294    0.6739 H   0  0  0  0  0  0  0  0  0  0  0  0
    0.4247   -4.4716   -1.1217 H   0  0  0  0  0  0  0  0  0  0  0  0
   -0.1946   -5.4183    0.2489 H   0  0  0  0  0  0  0  0  0  0  0  0
    0.8863   -6.1763   -0.9594 H   0  0  0  0  0  0  0  0  0  0  0  0
  1  2  1  0  0  0  0
  1 18  1  0  0  0  0
  1 19  1  0  0  0  0
  1 20  1  0  0  0  0
  2  3  1  0  0  0  0
  2  4  1  0  0  0  0
  2 21  1  0  0  0  0
  3 22  1  0  0  0  0
  3 23  1  0  0  0  0
  3 24  1  0  0  0  0
  4  5  1  0  0  0  0
  5  6  2  0  0  0  0
  5 10  1  0  0  0  0
  6  7  1  0  0  0  0
  6 25  1  0  0  0  0
  7  8  2  0  0  0  0
  7 26  1  0  0  0  0
  8  9  1  0  0  0  0
  8 27  1  0  0  0  0
  9 10  2  0  0  0  0
  9 28  1  0  0  0  0
 10 11  1  0  0  0  0
 11 12  1  0  0  0  0
 12 13  2  0  0  0  0
 12 14  1  0  0  0  0
 14 15  1  0  0  0  0
 14 16  1  0  0  0  0
 15 29  1  0  0  0  0
 15 30  1  0  0  0  0
 15 31  1  0  0  0  0
 16 17  2  0  0  0  0
M  END
$$$$

 OpenBabel12201709243D

 29 30  0  0  0  0  0  0  0  0999 V2000
    1.1115    0.4325    0.3393 C   0  0  0  0  0  0  0  0  0  0  0  0
    2.5432   -0.0411    0.1280 C   0  0  0  0  0  0  0  0  0  0  0  0
    2.9768   -0.8970    1.2395 N   0  0  0  0  0  0  0  0  0  0  0  0
    2.7712   -2.2666    1.2614 C   0  0  0  0  0  0  0  0  0  0  0  0
    3.0462   -3.0837    2.2890 C   0  0  0  0  0  0  0  0  0  0  0  0
    2.7850   -4.5317    2.1631 C   0  0  0  0  0  0  0  0  0  0  0  0
    2.3564   -5.0508    1.1428 O   0  0  0  0  0  0  0  0  0  0  0  0
    3.0676   -5.2503    3.2713 O   0  0  0  0  0  0  0  0  0  0  0  0
    3.5973   -2.4547    3.5055 C   0  0  0  0  0  0  0  0  0  0  0  0
    3.8082   -3.1357    4.5082 O   0  0  0  0  0  0  0  0  0  0  0  0
    3.8881   -1.0087    3.4817 C   0  0  0  0  0  0  0  0  0  0  0  0
    4.4903   -0.4017    4.5847 C   0  0  0  0  0  0  0  0  0  0  0  0
    4.7590    0.9592    4.5395 C   0  0  0  0  0  0  0  0  0  0  0  0
    4.4112    1.6669    3.3956 C   0  0  0  0  0  0  0  0  0  0  0  0
    4.6663    3.1422    3.3070 C   0  0  0  0  0  0  0  0  0  0  0  0
    3.8122    1.0835    2.3243 N   0  0  0  0  0  0  0  0  0  0  0  0
    3.5582   -0.2481    2.3543 C   0  0  0  0  0  0  0  0  0  0  0  0
    0.7814    1.0363   -0.5118 H   0  0  0  0  0  0  0  0  0  0  0  0
    1.0230    1.0424    1.2442 H   0  0  0  0  0  0  0  0  0  0  0  0
    0.4257   -0.4157    0.4394 H   0  0  0  0  0  0  0  0  0  0  0  0
    3.2103    0.8157   -0.0238 H   0  0  0  0  0  0  0  0  0  0  0  0
    2.5882   -0.6107   -0.8099 H   0  0  0  0  0  0  0  0  0  0  0  0
    2.3533   -2.6586    0.3347 H   0  0  0  0  0  0  0  0  0  0  0  0
    3.4018   -4.7102    4.0302 H   0  0  0  0  0  0  0  0  0  0  0  0
    4.7506   -0.9809    5.4666 H   0  0  0  0  0  0  0  0  0  0  0  0
    5.2357    1.4508    5.3822 H   0  0  0  0  0  0  0  0  0  0  0  0
    5.3143    3.4883    4.1192 H   0  0  0  0  0  0  0  0  0  0  0  0
    3.7189    3.6859    3.3647 H   0  0  0  0  0  0  0  0  0  0  0  0
    5.1593    3.3818    2.3598 H   0  0  0  0  0  0  0  0  0  0  0  0
  1  2  1  0  0  0  0
  1 18  1  0  0  0  0
  1 19  1  0  0  0  0
  1 20  1  0  0  0  0
  2  3  1  0  0  0  0
  2 21  1  0  0  0  0
  2 22  1  0  0  0  0
  3  4  1  0  0  0  0
  3 17  1  0  0  0  0
  4  5  2  0  0  0  0
  4 23  1  0  0  0  0
  5  6  1  0  0  0  0
  5  9  1  0  0  0  0
  6  7  2  0  0  0  0
  6  8  1  0  0  0  0
  8 24  1  0  0  0  0
  9 10  2  0  0  0  0
  9 11  1  0  0  0  0
 11 12  2  0  0  0  0
 11 17  1  0  0  0  0
 12 13  1  0  0  0  0
 12 25  1  0  0  0  0
 13 14  2  0  0  0  0
 13 26  1  0  0  0  0
 14 15  1  0  0  0  0
 14 16  1  0  0  0  0
 15 27  1  0  0  0  0
 15 28  1  0  0  0  0
 15 29  1  0  0  0  0
 16 17  2  0  0  0  0
M  END
$$$$

 OpenBabel12201709243D

 25 25  0  0  0  0  0  0  0  0999 V2000
    1.2592    0.0749   -0.4593 C   0  0  0  0  0  0  0  0  0  0  0  0
    2.5686    0.0340    0.0949 O   0  0  0  0  0  0  0  0  0  0  0  0
    3.1369    1.2394    0.4327 C   0  0  0  0  0  0  0  0  0  0  0  0
    2.5362    2.4858    0.2542 C   0  0  0  0  0  0  0  0  0  0  0  0
    3.2122    3.6529    0.6249 C   0  0  0  0  0  0  0  0  0  0  0  0
    4.4744    3.5939    1.2224 C   0  0  0  0  0  0  0  0  0  0  0  0
    5.1841    4.7645    1.5849 N   0  0  0  0  0  0  0  0  0  0  0  0
    4.4985    6.0032    1.5308 O   0  0  0  0  0  0  0  0  0  0  0  0
    5.1894    7.1288    0.5434 S   0  0  0  0  0  0  0  0  0  0  0  0
    5.2361    6.6071   -0.8063 O   0  0  0  0  0  0  0  0  0  0  0  0
    4.6102    8.4193    0.8396 O   0  0  0  0  0  0  0  0  0  0  0  0
    6.7239    7.1490    1.0500 O   0  0  0  0  0  0  0  0  0  0  0  0
    5.0820    2.3421    1.3807 C   0  0  0  0  0  0  0  0  0  0  0  0
    4.4419    1.1682    0.9596 C   0  0  0  0  0  0  0  0  0  0  0  0
    5.0253   -0.0823    1.2546 N   0  0  0  0  0  0  0  0  0  0  0  0
    0.9548   -0.9530   -0.6779 H   0  0  0  0  0  0  0  0  0  0  0  0
    1.2471    0.6310   -1.4028 H   0  0  0  0  0  0  0  0  0  0  0  0
    0.5407    0.4906    0.2550 H   0  0  0  0  0  0  0  0  0  0  0  0
    1.5433    2.5908   -0.1691 H   0  0  0  0  0  0  0  0  0  0  0  0
    2.7203    4.6084    0.4625 H   0  0  0  0  0  0  0  0  0  0  0  0
    5.6346    4.6340    2.4925 H   0  0  0  0  0  0  0  0  0  0  0  0
    7.1380    6.3325    0.7068 H   0  0  0  0  0  0  0  0  0  0  0  0
    6.0673    2.2718    1.8325 H   0  0  0  0  0  0  0  0  0  0  0  0
    6.0353   -0.0941    1.1716 H   0  0  0  0  0  0  0  0  0  0  0  0
    4.5744   -0.8185    0.7113 H   0  0  0  0  0  0  0  0  0  0  0  0
  1  2  1  0  0  0  0
  1 16  1  0  0  0  0
  1 17  1  0  0  0  0
  1 18  1  0  0  0  0
  2  3  1  0  0  0  0
  3  4  2  0  0  0  0
  3 14  1  0  0  0  0
  4  5  1  0  0  0  0
  4 19  1  0  0  0  0
  5  6  2  0  0  0  0
  5 20  1  0  0  0  0
  6  7  1  0  0  0  0
  6 13  1  0  0  0  0
  7  8  1  0  0  0  0
  7 21  1  0  0  0  0
  8  9  1  0  0  0  0
  9 10  2  0  0  0  0
  9 11  2  0  0  0  0
  9 12  1  0  0  0  0
 12 22  1  0  0  0  0
 13 14  2  0  0  0  0
 13 23  1  0  0  0  0
 14 15  1  0  0  0  0
 15 24  1  0  0  0  0
 15 25  1  0  0  0  0
M  END
$$$$

 OpenBabel12201709243D

 30 32  0  0  0  0  0  0  0  0999 V2000
    1.1964   -0.0357    0.2192 N   0  0  0  0  0  0  0  0  0  0  0  0
    2.5699   -0.0257    0.1243 C   0  0  0  0  0  0  0  0  0  0  0  0
    3.1903   -1.1978    0.0340 N   0  0  0  0  0  0  0  0  0  0  0  0
    4.5307   -1.1614   -0.0192 C   0  0  0  0  0  0  0  0  0  0  0  0
    5.1586   -2.4096   -0.1736 N   0  0  0  0  0  0  0  0  0  0  0  0
    5.2825    0.0099   -0.0021 C   0  0  0  0  0  0  0  0  0  0  0  0
    6.6481    0.0384   -0.0089 N   0  0  0  0  0  0  0  0  0  0  0  0
    7.2461    1.2581    0.0320 C   0  0  0  0  0  0  0  0  0  0  0  0
    6.4531    2.4180    0.0258 C   0  0  0  0  0  0  0  0  0  0  0  0
    6.9598    3.7188    0.0092 N   0  0  0  0  0  0  0  0  0  0  0  0
    5.1033    2.3625    0.0486 N   0  0  0  0  0  0  0  0  0  0  0  0
    4.5060    1.1679    0.0518 C   0  0  0  0  0  0  0  0  0  0  0  0
    3.1771    1.1546    0.1065 N   0  0  0  0  0  0  0  0  0  0  0  0
    8.7280    1.2216    0.0979 C   0  0  0  0  0  0  0  0  0  0  0  0
    9.4462    0.1707   -0.5086 C   0  0  0  0  0  0  0  0  0  0  0  0
   10.8403    0.0862   -0.4238 C   0  0  0  0  0  0  0  0  0  0  0  0
   11.5561    1.0563    0.2691 C   0  0  0  0  0  0  0  0  0  0  0  0
   10.8777    2.1064    0.8782 C   0  0  0  0  0  0  0  0  0  0  0  0
    9.4821    2.1814    0.7994 C   0  0  0  0  0  0  0  0  0  0  0  0
    0.8121   -0.8868   -0.1651 H   0  0  0  0  0  0  0  0  0  0  0  0
    0.8083    0.8416   -0.0997 H   0  0  0  0  0  0  0  0  0  0  0  0
    4.4758   -3.1470   -0.0317 H   0  0  0  0  0  0  0  0  0  0  0  0
    5.9841   -2.4812    0.4135 H   0  0  0  0  0  0  0  0  0  0  0  0
    7.6044    3.8569   -0.7617 H   0  0  0  0  0  0  0  0  0  0  0  0
    6.1615    4.3490   -0.0443 H   0  0  0  0  0  0  0  0  0  0  0  0
    8.9116   -0.6089   -1.0507 H   0  0  0  0  0  0  0  0  0  0  0  0
   11.3622   -0.7445   -0.8922 H   0  0  0  0  0  0  0  0  0  0  0  0
   12.6383    0.9884    0.3442 H   0  0  0  0  0  0  0  0  0  0  0  0
   11.4299    2.8633    1.4300 H   0  0  0  0  0  0  0  0  0  0  0  0
    8.9904    2.9987    1.3243 H   0  0  0  0  0  0  0  0  0  0  0  0
  1  2  1  0  0  0  0
  1 20  1  0  0  0  0
  1 21  1  0  0  0  0
  2  3  2  0  0  0  0
  2 13  1  0  0  0  0
  3  4  1  0  0  0  0
  4  5  1  0  0  0  0
  4  6  2  0  0  0  0
  5 22  1  0  0  0  0
  5 23  1  0  0  0  0
  6  7  1  0  0  0  0
  6 12  1  0  0  0  0
  7  8  2  0  0  0  0
  8  9  1  0  0  0  0
  8 14  1  0  0  0  0
  9 10  1  0  0  0  0
  9 11  2  0  0  0  0
 10 24  1  0  0  0  0
 10 25  1  0  0  0  0
 11 12  1  0  0  0  0
 12 13  2  0  0  0  0
 14 15  2  0  0  0  0
 14 19  1  0  0  0  0
 15 16  1  0  0  0  0
 15 26  1  0  0  0  0
 16 17  2  0  0  0  0
 16 27  1  0  0  0  0
 17 18  1  0  0  0  0
 17 28  1  0  0  0  0
 18 19  2  0  0  0  0
 18 29  1  0  0  0  0
 19 30  1  0  0  0  0
M  END
$$$$

 OpenBabel12201709243D

 39 39  0  0  0  0  0  0  0  0999 V2000
    0.9930   -0.1061    0.4186 O   0  0  0  0  0  0  0  0  0  0  0  0
    2.1440   -0.1232   -0.0295 N   0  0  0  0  0  0  0  0  0  0  0  0
    2.8117   -1.1508    0.4613 N   0  0  0  0  0  0  0  0  0  0  0  0
    3.5625   -1.8230   -0.6212 C   0  0  0  0  0  0  0  0  0  0  0  0
    2.7250   -2.9187   -1.3165 C   0  0  0  0  0  0  0  0  0  0  0  0
    2.6647   -4.2187   -0.4988 C   0  0  0  0  0  0  0  0  0  0  0  0
    1.3256   -4.4204    0.2234 C   0  0  0  0  0  0  0  0  0  0  0  0
    1.4952   -5.3108    1.4569 C   0  0  0  0  0  0  0  0  0  0  0  0
    0.4256   -5.0547    2.5278 C   0  0  0  0  0  0  0  0  0  0  0  0
    1.0327   -4.8893    3.9297 C   0  0  0  0  0  0  0  0  0  0  0  0
    1.3301   -3.4361    4.3335 C   0  0  0  0  0  0  0  0  0  0  0  0
    2.1920   -2.6555    3.3379 C   0  0  0  0  0  0  0  0  0  0  0  0
    2.5882   -1.2814    3.8753 C   0  0  0  0  0  0  0  0  0  0  0  0
    3.0544   -0.2441    2.8411 C   0  0  0  0  0  0  0  0  0  0  0  0
    3.7367   -0.7564    1.5529 C   0  0  0  0  0  0  0  0  0  0  0  0
    4.4803   -2.2901   -0.2395 H   0  0  0  0  0  0  0  0  0  0  0  0
    3.9070   -1.0981   -1.3728 H   0  0  0  0  0  0  0  0  0  0  0  0
    3.2278   -3.1486   -2.2686 H   0  0  0  0  0  0  0  0  0  0  0  0
    1.7271   -2.5604   -1.5817 H   0  0  0  0  0  0  0  0  0  0  0  0
    3.4956   -4.2350    0.2170 H   0  0  0  0  0  0  0  0  0  0  0  0
    2.8286   -5.0737   -1.1674 H   0  0  0  0  0  0  0  0  0  0  0  0
    0.6082   -4.8818   -0.4692 H   0  0  0  0  0  0  0  0  0  0  0  0
    0.9086   -3.4494    0.5000 H   0  0  0  0  0  0  0  0  0  0  0  0
    2.4930   -5.1689    1.8848 H   0  0  0  0  0  0  0  0  0  0  0  0
    1.4530   -6.3627    1.1470 H   0  0  0  0  0  0  0  0  0  0  0  0
   -0.2496   -5.9190    2.5426 H   0  0  0  0  0  0  0  0  0  0  0  0
   -0.2001   -4.1869    2.2887 H   0  0  0  0  0  0  0  0  0  0  0  0
    1.9425   -5.4941    4.0302 H   0  0  0  0  0  0  0  0  0  0  0  0
    0.3218   -5.2915    4.6624 H   0  0  0  0  0  0  0  0  0  0  0  0
    1.8154   -3.4445    5.3178 H   0  0  0  0  0  0  0  0  0  0  0  0
    0.3762   -2.9084    4.4615 H   0  0  0  0  0  0  0  0  0  0  0  0
    1.6251   -2.5281    2.4160 H   0  0  0  0  0  0  0  0  0  0  0  0
    3.0996   -3.2254    3.1112 H   0  0  0  0  0  0  0  0  0  0  0  0
    3.3915   -1.4233    4.6130 H   0  0  0  0  0  0  0  0  0  0  0  0
    1.7509   -0.8442    4.4349 H   0  0  0  0  0  0  0  0  0  0  0  0
    3.7631    0.4234    3.3521 H   0  0  0  0  0  0  0  0  0  0  0  0
    2.2038    0.4034    2.5960 H   0  0  0  0  0  0  0  0  0  0  0  0
    4.3613   -1.6135    1.8353 H   0  0  0  0  0  0  0  0  0  0  0  0
    4.4261    0.0194    1.1901 H   0  0  0  0  0  0  0  0  0  0  0  0
  1  2  2  0  0  0  0
  2  3  1  0  0  0  0
  3  4  1  0  0  0  0
  3 15  1  0  0  0  0
  4  5  1  0  0  0  0
  4 16  1  0  0  0  0
  4 17  1  0  0  0  0
  5  6  1  0  0  0  0
  5 18  1  0  0  0  0
  5 19  1  0  0  0  0
  6  7  1  0  0  0  0
  6 20  1  0  0  0  0
  6 21  1  0  0  0  0
  7  8  1  0  0  0  0
  7 22  1  0  0  0  0
  7 23  1  0  0  0  0
  8  9  1  0  0  0  0
  8 24  1  0  0  0  0
  8 25  1  0  0  0  0
  9 10  1  0  0  0  0
  9 26  1  0  0  0  0
  9 27  1  0  0  0  0
 10 11  1  0  0  0  0
 10 28  1  0  0  0  0
 10 29  1  0  0  0  0
 11 12  1  0  0  0  0
 11 30  1  0  0  0  0
 11 31  1  0  0  0  0
 12 13  1  0  0  0  0
 12 32  1  0  0  0  0
 12 33  1  0  0  0  0
 13 14  1  0  0  0  0
 13 34  1  0  0  0  0
 13 35  1  0  0  0  0
 14 15  1  0  0  0  0
 14 36  1  0  0  0  0
 14 37  1  0  0  0  0
 15 38  1  0  0  0  0
 15 39  1  0  0  0  0
M  END
$$$$

 OpenBabel12201709243D

 28 28  0  0  1  0  0  0  0  0999 V2000
    1.0740   -0.1123    0.1029 C   0  0  0  0  0  0  0  0  0  0  0  0
    2.5921    0.0771    0.0375 C   0  0  3  0  0  0  0  0  0  0  0  0
    3.2120   -1.0956   -0.6682 N   0  0  0  0  0  0  0  0  0  0  0  0
    3.0112    1.4274   -0.6019 C   0  0  0  0  0  0  0  0  0  0  0  0
    2.5793    1.6496   -2.0357 C   0  0  0  0  0  0  0  0  0  0  0  0
    1.3816    2.3278   -2.3232 C   0  0  0  0  0  0  0  0  0  0  0  0
    0.9664    2.5242   -3.6462 C   0  0  0  0  0  0  0  0  0  0  0  0
    1.7548    2.0410   -4.6821 C   0  0  0  0  0  0  0  0  0  0  0  0
    1.3986    2.1892   -5.9932 O   0  0  0  0  0  0  0  0  0  0  0  0
    2.9483    1.3808   -4.4077 C   0  0  0  0  0  0  0  0  0  0  0  0
    3.7236    0.9159   -5.4300 O   0  0  0  0  0  0  0  0  0  0  0  0
    3.3695    1.1875   -3.0985 C   0  0  0  0  0  0  0  0  0  0  0  0
    3.1613    0.0901    1.4776 C   0  0  0  0  0  0  0  0  0  0  0  0
    2.6761    0.6772    2.4308 O   0  0  0  0  0  0  0  0  0  0  0  0
    4.3178   -0.6234    1.5505 O   0  0  0  0  0  0  0  0  0  0  0  0
    0.6221   -0.1591   -0.8934 H   0  0  0  0  0  0  0  0  0  0  0  0
    0.5977    0.7086    0.6516 H   0  0  0  0  0  0  0  0  0  0  0  0
    0.8107   -1.0385    0.6280 H   0  0  0  0  0  0  0  0  0  0  0  0
    2.9448   -1.0381   -1.6574 H   0  0  0  0  0  0  0  0  0  0  0  0
    2.7421   -1.9485   -0.3436 H   0  0  0  0  0  0  0  0  0  0  0  0
    4.1049    1.5343   -0.5536 H   0  0  0  0  0  0  0  0  0  0  0  0
    2.6302    2.2568    0.0114 H   0  0  0  0  0  0  0  0  0  0  0  0
    0.7609    2.7101   -1.5154 H   0  0  0  0  0  0  0  0  0  0  0  0
    0.0388    3.0527   -3.8395 H   0  0  0  0  0  0  0  0  0  0  0  0
    0.5381    2.6410   -6.0245 H   0  0  0  0  0  0  0  0  0  0  0  0
    3.2471    1.1882   -6.2393 H   0  0  0  0  0  0  0  0  0  0  0  0
    4.3122    0.6781   -2.9129 H   0  0  0  0  0  0  0  0  0  0  0  0
    4.4595   -1.0009    0.6453 H   0  0  0  0  0  0  0  0  0  0  0  0
  1  2  1  0  0  0  0
  1 16  1  0  0  0  0
  1 17  1  0  0  0  0
  1 18  1  0  0  0  0
  2  3  1  0  0  0  0
  2  4  1  0  0  0  0
  2 13  1  0  0  0  0
  3 19  1  0  0  0  0
  3 20  1  0  0  0  0
  4  5  1  0  0  0  0
  4 21  1  0  0  0  0
  4 22  1  0  0  0  0
  5  6  2  0  0  0  0
  5 12  1  0  0  0  0
  6  7  1  0  0  0  0
  6 23  1  0  0  0  0
  7  8  2  0  0  0  0
  7 24  1  0  0  0  0
  8  9  1  0  0  0  0
  8 10  1  0  0  0  0
  9 25  1  0  0  0  0
 10 11  1  0  0  0  0
 10 12  2  0  0  0  0
 11 26  1  0  0  0  0
 12 27  1  0  0  0  0
 13 14  2  0  0  0  0
 13 15  1  0  0  0  0
 15 28  1  0  0  0  0
M  END
$$$$

 OpenBabel12201709243D

 25 26  0  0  0  0  0  0  0  0999 V2000
    3.9434    4.2446   -1.3234 O   0  0  0  0  0  0  0  0  0  0  0  0
    3.5204    3.0627   -0.7659 N   0  0  0  0  0  0  0  0  0  0  0  0
    2.9245    3.0948    0.2904 O   0  0  0  0  0  0  0  0  0  0  0  0
    3.7691    1.8404   -1.4122 C   0  0  0  0  0  0  0  0  0  0  0  0
    3.3866    0.5861   -0.9679 C   0  0  0  0  0  0  0  0  0  0  0  0
    3.8317   -0.3455   -1.9360 C   0  0  0  0  0  0  0  0  0  0  0  0
    4.4785    0.3806   -2.9147 C   0  0  0  0  0  0  0  0  0  0  0  0
    4.4410    1.7085   -2.6002 O   0  0  0  0  0  0  0  0  0  0  0  0
    5.1344   -0.1915   -4.1216 C   0  0  0  0  0  0  0  0  0  0  0  0
    5.8205    0.5799   -5.0382 C   0  0  0  0  0  0  0  0  0  0  0  0
    6.5023   -0.4372   -6.2431 S   0  0  0  0  0  0  0  0  0  0  0  0
    5.7671   -1.7813   -5.4899 C   0  0  0  0  0  0  0  0  0  0  0  0
    5.9644   -2.9665   -6.1360 N   0  0  0  0  0  0  0  0  0  0  0  0
    5.2912   -4.1279   -5.7755 C   0  0  0  0  0  0  0  0  0  0  0  0
    4.4505   -4.2234   -4.8822 O   0  0  0  0  0  0  0  0  0  0  0  0
    5.6865   -5.3219   -6.6581 C   0  0  0  0  0  0  0  0  0  0  0  0
    6.6763   -4.9871   -7.5413 F   0  0  0  0  0  0  0  0  0  0  0  0
    6.1568   -6.3784   -5.9437 F   0  0  0  0  0  0  0  0  0  0  0  0
    4.6525   -5.7807   -7.4135 F   0  0  0  0  0  0  0  0  0  0  0  0
    5.1005   -1.5458   -4.3930 N   0  0  0  0  0  0  0  0  0  0  0  0
    3.6014    4.8392   -0.6364 H   0  0  0  0  0  0  0  0  0  0  0  0
    2.8471    0.3766   -0.0533 H   0  0  0  0  0  0  0  0  0  0  0  0
    3.7124   -1.4217   -1.9254 H   0  0  0  0  0  0  0  0  0  0  0  0
    5.9669    1.6508   -5.0444 H   0  0  0  0  0  0  0  0  0  0  0  0
    6.5751   -2.9621   -6.9443 H   0  0  0  0  0  0  0  0  0  0  0  0
  1  2  1  0  0  0  0
  1 21  1  0  0  0  0
  2  3  2  0  0  0  0
  2  4  1  0  0  0  0
  4  5  2  0  0  0  0
  4  8  1  0  0  0  0
  5  6  1  0  0  0  0
  5 22  1  0  0  0  0
  6  7  2  0  0  0  0
  6 23  1  0  0  0  0
  7  8  1  0  0  0  0
  7  9  1  0  0  0  0
  9 10  2  0  0  0  0
  9 20  1  0  0  0  0
 10 11  1  0  0  0  0
 10 24  1  0  0  0  0
 11 12  1  0  0  0  0
 12 13  1  0  0  0  0
 12 20  2  0  0  0  0
 13 14  1  0  0  0  0
 13 25  1  0  0  0  0
 14 15  2  0  0  0  0
 14 16  1  0  0  0  0
 16 17  1  0  0  0  0
 16 18  1  0  0  0  0
 16 19  1  0  0  0  0
M  END
$$$$

 OpenBabel12201709243D

 12 12  0  0  0  0  0  0  0  0999 V2000
    2.5606    0.7804    0.8056 O   0  0  0  0  0  0  0  0  0  0  0  0
    2.7199   -0.1269   -0.0182 N   0  0  0  0  0  0  0  0  0  0  0  0
    3.0694    0.3391   -1.2637 N   0  0  0  0  0  0  0  0  0  0  0  0
    3.2197    1.7242   -1.6156 C   0  0  0  0  0  0  0  0  0  0  0  0
    3.4172    1.5797   -3.1124 C   0  0  0  0  0  0  0  0  0  0  0  0
    3.5350    2.5030   -3.9039 O   0  0  0  0  0  0  0  0  0  0  0  0
    3.4447    0.2639   -3.4467 N   0  0  0  0  0  0  0  0  0  0  0  0
    3.1971   -0.5108   -2.3550 C   0  0  0  0  0  0  0  0  0  0  0  0
    3.0891   -1.7263   -2.3945 O   0  0  0  0  0  0  0  0  0  0  0  0
    4.1122    2.1445   -1.1465 H   0  0  0  0  0  0  0  0  0  0  0  0
    2.3090    2.2863   -1.3975 H   0  0  0  0  0  0  0  0  0  0  0  0
    3.5370   -0.0946   -4.3825 H   0  0  0  0  0  0  0  0  0  0  0  0
  1  2  2  0  0  0  0
  2  3  1  0  0  0  0
  3  4  1  0  0  0  0
  3  8  1  0  0  0  0
  4  5  1  0  0  0  0
  4 10  1  0  0  0  0
  4 11  1  0  0  0  0
  5  6  2  0  0  0  0
  5  7  1  0  0  0  0
  7  8  1  0  0  0  0
  7 12  1  0  0  0  0
  8  9  2  0  0  0  0
M  END
$$$$

 OpenBabel12201709243D

 67 70  0  0  1  0  0  0  0  0999 V2000
    0.0201   -0.8247    0.5762 C   0  0  0  0  0  0  0  0  0  0  0  0
    1.3013   -0.0312    0.2703 C   0  0  3  0  0  0  0  0  0  0  0  0
    0.8990    1.2160   -0.5496 C   0  0  0  0  0  0  0  0  0  0  0  0
    0.0350    2.2560    0.1672 C   0  0  0  0  0  0  0  0  0  0  0  0
   -0.2264    3.4584   -0.7223 C   0  0  0  0  0  0  0  0  0  0  0  0
    0.3482    3.6785   -1.7755 O   0  0  0  0  0  0  0  0  0  0  0  0
   -1.1698    4.2825   -0.2286 O   0  0  0  0  0  0  0  0  0  0  0  0
    2.2623    0.1103    1.5389 C   0  0  3  0  0  0  0  0  0  0  0  0
    2.6776   -1.3172    1.9730 C   0  0  0  0  0  0  0  0  0  0  0  0
    3.7947   -1.6862    0.9890 C   0  0  0  0  0  0  0  0  0  0  0  0
    4.4633   -0.3498    0.5527 C   0  0  3  0  0  0  0  0  0  0  0  0
    4.4563   -0.1096   -0.9744 C   0  0  3  0  0  0  0  0  0  0  0  0
    5.1648   -1.2357   -1.7266 C   0  0  0  0  0  0  0  0  0  0  0  0
    5.4917   -0.8516   -3.1567 C   0  0  0  0  0  0  0  0  0  0  0  0
    6.4866    0.3040   -3.1332 C   0  0  3  0  0  0  0  0  0  0  0  0
    7.1683    0.4976   -4.5116 C   0  0  0  0  0  0  0  0  0  0  0  0
    6.5726    1.5451   -5.4527 C   0  0  3  0  0  0  0  0  0  0  0  0
    5.4552    1.0239   -6.1734 O   0  0  0  0  0  0  0  0  0  0  0  0
    6.1051    2.8140   -4.7612 C   0  0  0  0  0  0  0  0  0  0  0  0
    5.2239    2.4860   -3.5683 C   0  0  0  0  0  0  0  0  0  0  0  0
    5.9152    1.6009   -2.4911 C   0  0  3  0  0  0  0  0  0  0  0  0
    7.1288    2.3931   -1.9282 C   0  0  0  0  0  0  0  0  0  0  0  0
    4.8105    1.3494   -1.3829 C   0  0  3  0  0  0  0  0  0  0  0  0
    4.8936    2.3305   -0.1980 C   0  0  0  0  0  0  0  0  0  0  0  0
    3.7620    2.1547    0.8005 C   0  0  0  0  0  0  0  0  0  0  0  0
    3.7098    0.7358    1.3747 C   0  0  3  0  0  0  0  0  0  0  0  0
    4.4845    0.8580    2.7376 C   0  0  0  0  0  0  0  0  0  0  0  0
   -0.6045   -0.9014   -0.3274 H   0  0  0  0  0  0  0  0  0  0  0  0
   -0.5680   -0.3700    1.3686 H   0  0  0  0  0  0  0  0  0  0  0  0
    0.2334   -1.8646    0.8509 H   0  0  0  0  0  0  0  0  0  0  0  0
    1.8052   -0.6757   -0.4503 H   0  0  0  0  0  0  0  0  0  0  0  0
    0.3349    0.8732   -1.4293 H   0  0  0  0  0  0  0  0  0  0  0  0
    1.7751    1.6762   -1.0061 H   0  0  0  0  0  0  0  0  0  0  0  0
    0.5180    2.6100    1.0798 H   0  0  0  0  0  0  0  0  0  0  0  0
   -0.9316    1.8090    0.4171 H   0  0  0  0  0  0  0  0  0  0  0  0
   -1.5442    3.9836    0.6184 H   0  0  0  0  0  0  0  0  0  0  0  0
    1.7191    0.6171    2.3451 H   0  0  0  0  0  0  0  0  0  0  0  0
    1.8789   -2.0592    1.9722 H   0  0  0  0  0  0  0  0  0  0  0  0
    3.0509   -1.3264    3.0024 H   0  0  0  0  0  0  0  0  0  0  0  0
    3.3555   -2.2184    0.1393 H   0  0  0  0  0  0  0  0  0  0  0  0
    4.5149   -2.3668    1.4544 H   0  0  0  0  0  0  0  0  0  0  0  0
    5.5181   -0.3926    0.8588 H   0  0  0  0  0  0  0  0  0  0  0  0
    3.4260   -0.2173   -1.3220 H   0  0  0  0  0  0  0  0  0  0  0  0
    4.5218   -2.1251   -1.7515 H   0  0  0  0  0  0  0  0  0  0  0  0
    6.0761   -1.5402   -1.1974 H   0  0  0  0  0  0  0  0  0  0  0  0
    5.9387   -1.7270   -3.6426 H   0  0  0  0  0  0  0  0  0  0  0  0
    4.5864   -0.5966   -3.7170 H   0  0  0  0  0  0  0  0  0  0  0  0
    7.2971   -0.0462   -2.4734 H   0  0  0  0  0  0  0  0  0  0  0  0
    7.2022   -0.4749   -5.0288 H   0  0  0  0  0  0  0  0  0  0  0  0
    8.2097    0.7632   -4.3212 H   0  0  0  0  0  0  0  0  0  0  0  0
    7.3350    1.8103   -6.1937 H   0  0  0  0  0  0  0  0  0  0  0  0
    5.5095    0.0600   -6.1908 H   0  0  0  0  0  0  0  0  0  0  0  0
    5.5167    3.4218   -5.4608 H   0  0  0  0  0  0  0  0  0  0  0  0
    6.9565    3.4277   -4.4509 H   0  0  0  0  0  0  0  0  0  0  0  0
    4.3167    1.9851   -3.9363 H   0  0  0  0  0  0  0  0  0  0  0  0
    4.8874    3.4296   -3.1170 H   0  0  0  0  0  0  0  0  0  0  0  0
    7.9302    2.4999   -2.6658 H   0  0  0  0  0  0  0  0  0  0  0  0
    7.5670    1.8794   -1.0648 H   0  0  0  0  0  0  0  0  0  0  0  0
    6.8516    3.4075   -1.6238 H   0  0  0  0  0  0  0  0  0  0  0  0
    3.8711    1.6632   -1.8644 H   0  0  0  0  0  0  0  0  0  0  0  0
    4.8456    3.3618   -0.5710 H   0  0  0  0  0  0  0  0  0  0  0  0
    5.8449    2.2224    0.3342 H   0  0  0  0  0  0  0  0  0  0  0  0
    3.9083    2.8944    1.6002 H   0  0  0  0  0  0  0  0  0  0  0  0
    2.8272    2.4750    0.3612 H   0  0  0  0  0  0  0  0  0  0  0  0
    4.0162    1.5899    3.4032 H   0  0  0  0  0  0  0  0  0  0  0  0
    5.5151    1.1957    2.5540 H   0  0  0  0  0  0  0  0  0  0  0  0
    4.5856   -0.0779    3.2906 H   0  0  0  0  0  0  0  0  0  0  0  0
  1  2  1  0  0  0  0
  1 28  1  0  0  0  0
  1 29  1  0  0  0  0
  1 30  1  0  0  0  0
  2  3  1  0  0  0  0
  2  8  1  0  0  0  0
  2 31  1  0  0  0  0
  3  4  1  0  0  0  0
  3 32  1  0  0  0  0
  3 33  1  0  0  0  0
  4  5  1  0  0  0  0
  4 34  1  0  0  0  0
  4 35  1  0  0  0  0
  5  6  2  0  0  0  0
  5  7  1  0  0  0  0
  7 36  1  0  0  0  0
  8  9  1  0  0  0  0
  8 26  1  0  0  0  0
  8 37  1  0  0  0  0
  9 10  1  0  0  0  0
  9 38  1  0  0  0  0
  9 39  1  0  0  0  0
 10 11  1  0  0  0  0
 10 40  1  0  0  0  0
 10 41  1  0  0  0  0
 11 12  1  0  0  0  0
 11 26  1  0  0  0  0
 11 42  1  0  0  0  0
 12 13  1  0  0  0  0
 12 23  1  0  0  0  0
 12 43  1  0  0  0  0
 13 14  1  0  0  0  0
 13 44  1  0  0  0  0
 13 45  1  0  0  0  0
 14 15  1  0  0  0  0
 14 46  1  0  0  0  0
 14 47  1  0  0  0  0
 15 16  1  0  0  0  0
 15 21  1  0  0  0  0
 15 48  1  0  0  0  0
 16 17  1  0  0  0  0
 16 49  1  0  0  0  0
 16 50  1  0  0  0  0
 17 18  1  0  0  0  0
 17 19  1  0  0  0  0
 17 51  1  0  0  0  0
 18 52  1  0  0  0  0
 19 20  1  0  0  0  0
 19 53  1  0  0  0  0
 19 54  1  0  0  0  0
 20 21  1  0  0  0  0
 20 55  1  0  0  0  0
 20 56  1  0  0  0  0
 21 22  1  0  0  0  0
 21 23  1  0  0  0  0
 22 57  1  0  0  0  0
 22 58  1  0  0  0  0
 22 59  1  0  0  0  0
 23 24  1  0  0  0  0
 23 60  1  0  0  0  0
 24 25  1  0  0  0  0
 24 61  1  0  0  0  0
 24 62  1  0  0  0  0
 25 26  1  0  0  0  0
 25 63  1  0  0  0  0
 25 64  1  0  0  0  0
 26 27  1  0  0  0  0
 27 65  1  0  0  0  0
 27 66  1  0  0  0  0
 27 67  1  0  0  0  0
M  END
$$$$

 OpenBabel12201709243D

 23 23  0  0  0  0  0  0  0  0999 V2000
    4.4245    2.8595    0.5301 C   0  0  0  0  0  0  0  0  0  0  0  0
    4.1652    1.4551    0.2786 N   0  0  0  0  0  0  0  0  0  0  0  0
    3.1241    1.0530   -0.6466 C   0  0  0  0  0  0  0  0  0  0  0  0
    4.7538    0.5854    1.1540 N   0  0  0  0  0  0  0  0  0  0  0  0
    4.4562   -0.6106    0.9735 N   0  0  0  0  0  0  0  0  0  0  0  0
    5.0846   -1.4538    1.9089 C   0  0  0  0  0  0  0  0  0  0  0  0
    5.9013   -1.0453    2.9447 N   0  0  0  0  0  0  0  0  0  0  0  0
    6.2630   -2.1438    3.5618 C   0  0  0  0  0  0  0  0  0  0  0  0
    5.7168   -3.2427    2.9737 N   0  0  0  0  0  0  0  0  0  0  0  0
    5.8370   -4.2071    3.2581 H   0  0  0  0  0  0  0  0  0  0  0  0
    4.9513   -2.8300    1.9027 C   0  0  0  0  0  0  0  0  0  0  0  0
    4.2430   -3.7604    1.0772 C   0  0  0  0  0  0  0  0  0  0  0  0
    4.2789   -4.9722    1.2591 O   0  0  0  0  0  0  0  0  0  0  0  0
    3.5025   -3.2440    0.0569 N   0  0  0  0  0  0  0  0  0  0  0  0
    3.8816    3.4903   -0.1785 H   0  0  0  0  0  0  0  0  0  0  0  0
    5.4975    3.0367    0.4105 H   0  0  0  0  0  0  0  0  0  0  0  0
    4.1189    3.1111    1.5496 H   0  0  0  0  0  0  0  0  0  0  0  0
    2.7411    1.9198   -1.1925 H   0  0  0  0  0  0  0  0  0  0  0  0
    2.3009    0.5839   -0.1011 H   0  0  0  0  0  0  0  0  0  0  0  0
    3.5517    0.3520   -1.3693 H   0  0  0  0  0  0  0  0  0  0  0  0
    6.9092   -2.2024    4.4275 H   0  0  0  0  0  0  0  0  0  0  0  0
    3.4556   -2.2511   -0.1240 H   0  0  0  0  0  0  0  0  0  0  0  0
    2.9980   -3.8854   -0.5390 H   0  0  0  0  0  0  0  0  0  0  0  0
  1  2  1  0  0  0  0
  1 15  1  0  0  0  0
  1 16  1  0  0  0  0
  1 17  1  0  0  0  0
  2  3  1  0  0  0  0
  2  4  1  0  0  0  0
  3 18  1  0  0  0  0
  3 19  1  0  0  0  0
  3 20  1  0  0  0  0
  4  5  2  3  0  0  0
  5  6  1  0  0  0  0
  6  7  1  0  0  0  0
  6 11  2  0  0  0  0
  7  8  2  0  0  0  0
  8  9  1  0  0  0  0
  8 21  1  0  0  0  0
  9 10  1  0  0  0  0
  9 11  1  0  0  0  0
 11 12  1  0  0  0  0
 12 13  2  0  0  0  0
 12 14  1  0  0  0  0
 14 22  1  0  0  0  0
 14 23  1  0  0  0  0
M  END
$$$$

 OpenBabel12201709243D

 33 35  0  0  0  0  0  0  0  0999 V2000
    1.0308   -0.0854    0.0362 C   0  0  0  0  0  0  0  0  0  0  0  0
    2.4856   -0.0641    0.1353 N   0  0  0  0  0  0  0  0  0  0  0  0
    3.1533   -1.2939    0.0425 C   0  0  0  0  0  0  0  0  0  0  0  0
    2.5523   -2.3656   -0.0843 O   0  0  0  0  0  0  0  0  0  0  0  0
    4.6776   -1.2558    0.0174 C   0  0  0  0  0  0  0  0  0  0  0  0
    5.1638   -0.9095    1.3500 N   0  0  0  0  0  0  0  0  0  0  0  0
    4.9749    0.3004    1.7625 C   0  0  0  0  0  0  0  0  0  0  0  0
    5.3680    0.6149    3.1780 C   0  0  0  0  0  0  0  0  0  0  0  0
    6.4015   -0.1138    3.7808 C   0  0  0  0  0  0  0  0  0  0  0  0
    6.7498    0.1279    5.1111 C   0  0  0  0  0  0  0  0  0  0  0  0
    6.0662    1.0947    5.8475 C   0  0  0  0  0  0  0  0  0  0  0  0
    5.0328    1.8200    5.2571 C   0  0  0  0  0  0  0  0  0  0  0  0
    4.6775    1.5774    3.9290 C   0  0  0  0  0  0  0  0  0  0  0  0
    4.3719    1.3763    0.9259 C   0  0  0  0  0  0  0  0  0  0  0  0
    5.0317    2.6191    0.9144 C   0  0  0  0  0  0  0  0  0  0  0  0
    4.4462    3.7131    0.2876 C   0  0  0  0  0  0  0  0  0  0  0  0
    5.2359    5.2394    0.3077 Cl  0  0  0  0  0  0  0  0  0  0  0  0
    3.2130    3.5799   -0.3345 C   0  0  0  0  0  0  0  0  0  0  0  0
    2.5722    2.3355   -0.3540 C   0  0  0  0  0  0  0  0  0  0  0  0
    3.1507    1.1998    0.2457 C   0  0  0  0  0  0  0  0  0  0  0  0
    0.6272   -1.0969    0.1399 H   0  0  0  0  0  0  0  0  0  0  0  0
    0.7177    0.2958   -0.9400 H   0  0  0  0  0  0  0  0  0  0  0  0
    0.6054    0.5256    0.8402 H   0  0  0  0  0  0  0  0  0  0  0  0
    5.0491   -0.5924   -0.7704 H   0  0  0  0  0  0  0  0  0  0  0  0
    5.0353   -2.2611   -0.2308 H   0  0  0  0  0  0  0  0  0  0  0  0
    6.9311   -0.8808    3.2197 H   0  0  0  0  0  0  0  0  0  0  0  0
    7.5459   -0.4479    5.5758 H   0  0  0  0  0  0  0  0  0  0  0  0
    6.3298    1.2729    6.8871 H   0  0  0  0  0  0  0  0  0  0  0  0
    4.4916    2.5642    5.8364 H   0  0  0  0  0  0  0  0  0  0  0  0
    3.8440    2.1311    3.5065 H   0  0  0  0  0  0  0  0  0  0  0  0
    5.9907    2.7392    1.4137 H   0  0  0  0  0  0  0  0  0  0  0  0
    2.7463    4.4326   -0.8227 H   0  0  0  0  0  0  0  0  0  0  0  0
    1.6310    2.2743   -0.8925 H   0  0  0  0  0  0  0  0  0  0  0  0
  1  2  1  0  0  0  0
  1 21  1  0  0  0  0
  1 22  1  0  0  0  0
  1 23  1  0  0  0  0
  2  3  1  0  0  0  0
  2 20  1  0  0  0  0
  3  4  2  0  0  0  0
  3  5  1  0  0  0  0
  5  6  1  0  0  0  0
  5 24  1  0  0  0  0
  5 25  1  0  0  0  0
  6  7  2  0  0  0  0
  7  8  1  0  0  0  0
  7 14  1  0  0  0  0
  8  9  2  0  0  0  0
  8 13  1  0  0  0  0
  9 10  1  0  0  0  0
  9 26  1  0  0  0  0
 10 11  2  0  0  0  0
 10 27  1  0  0  0  0
 11 12  1  0  0  0  0
 11 28  1  0  0  0  0
 12 13  2  0  0  0  0
 12 29  1  0  0  0  0
 13 30  1  0  0  0  0
 14 15  2  0  0  0  0
 14 20  1  0  0  0  0
 15 16  1  0  0  0  0
 15 31  1  0  0  0  0
 16 17  1  0  0  0  0
 16 18  2  0  0  0  0
 18 19  1  0  0  0  0
 18 32  1  0  0  0  0
 19 20  2  0  0  0  0
 19 33  1  0  0  0  0
M  END
$$$$

 OpenBabel12201709243D

 22 22  0  0  0  0  0  0  0  0999 V2000
    0.9708    0.2171   -0.0646 C   0  0  0  0  0  0  0  0  0  0  0  0
    2.4547    0.1298   -0.0806 C   0  0  0  0  0  0  0  0  0  0  0  0
    3.2686    1.1632   -0.1018 N   0  0  0  0  0  0  0  0  0  0  0  0
    4.5339    0.6502   -0.1125 C   0  0  0  0  0  0  0  0  0  0  0  0
    4.5125   -0.7283   -0.1081 C   0  0  0  0  0  0  0  0  0  0  0  0
    5.6141   -1.6016   -0.1436 N   0  0  0  0  0  0  0  0  0  0  0  0
    5.4045   -2.7940   -0.2143 O   0  0  0  0  0  0  0  0  0  0  0  0
    6.9212   -1.1514   -0.1234 O   0  0  0  0  0  0  0  0  0  0  0  0
    3.1684   -1.0518   -0.0713 N   0  0  0  0  0  0  0  0  0  0  0  0
    2.5963   -2.3817    0.0257 C   0  0  0  0  0  0  0  0  0  0  0  0
    2.4132   -3.0626   -1.3250 C   0  0  0  0  0  0  0  0  0  0  0  0
    1.9431   -4.3956   -1.1411 O   0  0  0  0  0  0  0  0  0  0  0  0
    0.6536    1.2650   -0.0807 H   0  0  0  0  0  0  0  0  0  0  0  0
    0.5622   -0.2403    0.8409 H   0  0  0  0  0  0  0  0  0  0  0  0
    0.5426   -0.2779   -0.9412 H   0  0  0  0  0  0  0  0  0  0  0  0
    5.3814    1.3230   -0.1327 H   0  0  0  0  0  0  0  0  0  0  0  0
    6.8263   -0.1960   -0.0362 H   0  0  0  0  0  0  0  0  0  0  0  0
    1.6309   -2.3111    0.5386 H   0  0  0  0  0  0  0  0  0  0  0  0
    3.2183   -2.9828    0.6968 H   0  0  0  0  0  0  0  0  0  0  0  0
    3.3408   -3.0987   -1.9049 H   0  0  0  0  0  0  0  0  0  0  0  0
    1.6707   -2.5280   -1.9265 H   0  0  0  0  0  0  0  0  0  0  0  0
    2.7010   -4.9252   -0.8310 H   0  0  0  0  0  0  0  0  0  0  0  0
  1  2  1  0  0  0  0
  1 13  1  0  0  0  0
  1 14  1  0  0  0  0
  1 15  1  0  0  0  0
  2  3  2  0  0  0  0
  2  9  1  0  0  0  0
  3  4  1  0  0  0  0
  4  5  2  0  0  0  0
  4 16  1  0  0  0  0
  5  6  1  0  0  0  0
  5  9  1  0  0  0  0
  6  7  2  0  0  0  0
  6  8  1  0  0  0  0
  8 17  1  0  0  0  0
  9 10  1  0  0  0  0
 10 11  1  0  0  0  0
 10 18  1  0  0  0  0
 10 19  1  0  0  0  0
 11 12  1  0  0  0  0
 11 20  1  0  0  0  0
 11 21  1  0  0  0  0
 12 22  1  0  0  0  0
M  END
$$$$

 OpenBabel12201709243D

 27 29  0  0  0  0  0  0  0  0999 V2000
    1.0319    0.3952    0.0936 C   0  0  0  0  0  0  0  0  0  0  0  0
    2.4418    0.1112    0.1699 N   0  0  0  0  0  0  0  0  0  0  0  0
    3.4093    1.0830    0.1832 C   0  0  0  0  0  0  0  0  0  0  0  0
    4.6170    0.5746    0.2223 N   0  0  0  0  0  0  0  0  0  0  0  0
    4.4260   -0.8027    0.2032 C   0  0  0  0  0  0  0  0  0  0  0  0
    5.5477   -1.6635    0.1580 N   0  0  0  0  0  0  0  0  0  0  0  0
    5.4262   -2.8697    0.1717 O   0  0  0  0  0  0  0  0  0  0  0  0
    6.8111   -1.0875    0.0955 O   0  0  0  0  0  0  0  0  0  0  0  0
    3.0746   -1.1152    0.1651 C   0  0  0  0  0  0  0  0  0  0  0  0
    2.2427   -2.6082   -0.1549 S   0  0  0  0  0  0  0  0  0  0  0  0
    1.4263   -3.0460    1.3535 C   0  0  0  0  0  0  0  0  0  0  0  0
    1.1855   -2.1516    2.3517 N   0  0  0  0  0  0  0  0  0  0  0  0
    0.4591   -2.5709    3.4137 C   0  0  0  0  0  0  0  0  0  0  0  0
   -0.0988   -3.7808    3.6269 N   0  0  0  0  0  0  0  0  0  0  0  0
    0.1652   -4.6119    2.6100 C   0  0  0  0  0  0  0  0  0  0  0  0
   -0.2558   -5.9056    2.4852 N   0  0  0  0  0  0  0  0  0  0  0  0
   -0.8242   -6.4043    3.1537 H   0  0  0  0  0  0  0  0  0  0  0  0
    0.2211   -6.3820    1.2956 C   0  0  0  0  0  0  0  0  0  0  0  0
    0.9082   -5.4647    0.6485 N   0  0  0  0  0  0  0  0  0  0  0  0
    0.8967   -4.3450    1.4635 C   0  0  0  0  0  0  0  0  0  0  0  0
    0.8837    1.4793    0.0739 H   0  0  0  0  0  0  0  0  0  0  0  0
    0.5383   -0.0111    0.9768 H   0  0  0  0  0  0  0  0  0  0  0  0
    0.6311   -0.0397   -0.8242 H   0  0  0  0  0  0  0  0  0  0  0  0
    3.1766    2.1406    0.1443 H   0  0  0  0  0  0  0  0  0  0  0  0
    6.5669   -0.1432    0.0923 H   0  0  0  0  0  0  0  0  0  0  0  0
    0.2864   -1.8355    4.1951 H   0  0  0  0  0  0  0  0  0  0  0  0
    0.0317   -7.3927    0.9524 H   0  0  0  0  0  0  0  0  0  0  0  0
  1  2  1  0  0  0  0
  1 21  1  0  0  0  0
  1 22  1  0  0  0  0
  1 23  1  0  0  0  0
  2  3  1  0  0  0  0
  2  9  1  0  0  0  0
  3  4  2  0  0  0  0
  3 24  1  0  0  0  0
  4  5  1  0  0  0  0
  5  6  1  0  0  0  0
  5  9  2  0  0  0  0
  6  7  2  0  0  0  0
  6  8  1  0  0  0  0
  8 25  1  0  0  0  0
  9 10  1  0  0  0  0
 10 11  1  0  0  0  0
 11 12  2  0  0  0  0
 11 20  1  0  0  0  0
 12 13  1  0  0  0  0
 13 14  2  0  0  0  0
 13 26  1  0  0  0  0
 14 15  1  0  0  0  0
 15 16  1  0  0  0  0
 15 20  2  0  0  0  0
 16 17  1  0  0  0  0
 16 18  1  0  0  0  0
 18 19  2  0  0  0  0
 18 27  1  0  0  0  0
 19 20  1  0  0  0  0
M  END
$$$$

 OpenBabel12201709243D

 45 47  0  0  0  0  0  0  0  0999 V2000
    1.1256   -0.5330   -0.9827 C   0  0  0  0  0  0  0  0  0  0  0  0
    2.5865   -0.4055   -0.6734 C   0  0  0  0  0  0  0  0  0  0  0  0
    3.5302   -1.1552   -1.3739 C   0  0  0  0  0  0  0  0  0  0  0  0
    4.9090   -1.0147   -1.1345 C   0  0  0  0  0  0  0  0  0  0  0  0
    5.8390   -1.8663   -1.9655 C   0  0  0  0  0  0  0  0  0  0  0  0
    5.3794   -0.1096   -0.1418 C   0  0  0  0  0  0  0  0  0  0  0  0
    6.7590    0.1425    0.0748 N   0  0  0  0  0  0  0  0  0  0  0  0
    7.4550   -0.8882   -0.0402 N   0  0  0  0  0  0  0  0  0  0  0  0
    8.8351   -0.6857    0.1597 C   0  0  0  0  0  0  0  0  0  0  0  0
    9.2892    0.1898    1.1342 C   0  0  0  0  0  0  0  0  0  0  0  0
   10.6409    0.2505    1.4691 C   0  0  0  0  0  0  0  0  0  0  0  0
   11.6079   -0.5741    0.8320 C   0  0  0  0  0  0  0  0  0  0  0  0
   12.9790   -0.6113    1.2004 C   0  0  0  0  0  0  0  0  0  0  0  0
   13.9021   -1.4378    0.5612 C   0  0  0  0  0  0  0  0  0  0  0  0
   13.4918   -2.2400   -0.4869 C   0  0  0  0  0  0  0  0  0  0  0  0
   12.1506   -2.2326   -0.8753 C   0  0  0  0  0  0  0  0  0  0  0  0
   11.1737   -1.4330   -0.2178 C   0  0  0  0  0  0  0  0  0  0  0  0
    9.7813   -1.4718   -0.5278 C   0  0  0  0  0  0  0  0  0  0  0  0
    9.2774   -2.3100   -1.5011 O   0  0  0  0  0  0  0  0  0  0  0  0
   11.0576    1.3814    2.7700 S   0  0  0  0  0  0  0  0  0  0  0  0
   11.0083    0.6326    4.0051 O   0  0  0  0  0  0  0  0  0  0  0  0
   12.2142    2.1455    2.3706 O   0  0  0  0  0  0  0  0  0  0  0  0
    9.8185    2.4188    2.8446 O   0  0  0  0  0  0  0  0  0  0  0  0
    4.4093    0.6117    0.5733 C   0  0  0  0  0  0  0  0  0  0  0  0
    3.0309    0.4731    0.3118 C   0  0  0  0  0  0  0  0  0  0  0  0
    4.8446    1.7325    1.8720 S   0  0  0  0  0  0  0  0  0  0  0  0
    6.0350    1.2773    2.5601 O   0  0  0  0  0  0  0  0  0  0  0  0
    4.7239    3.0778    1.3562 O   0  0  0  0  0  0  0  0  0  0  0  0
    3.6706    1.5353    2.9694 O   0  0  0  0  0  0  0  0  0  0  0  0
    0.9538   -1.2456   -1.7977 H   0  0  0  0  0  0  0  0  0  0  0  0
    0.7211    0.4340   -1.2986 H   0  0  0  0  0  0  0  0  0  0  0  0
    0.5805   -0.8891   -0.1042 H   0  0  0  0  0  0  0  0  0  0  0  0
    3.1935   -1.8530   -2.1398 H   0  0  0  0  0  0  0  0  0  0  0  0
    5.2999   -2.4074   -2.7488 H   0  0  0  0  0  0  0  0  0  0  0  0
    6.3226   -2.6246   -1.3402 H   0  0  0  0  0  0  0  0  0  0  0  0
    6.5880   -1.2435   -2.4645 H   0  0  0  0  0  0  0  0  0  0  0  0
    8.5574    0.7921    1.6614 H   0  0  0  0  0  0  0  0  0  0  0  0
   13.3626   -0.0011    2.0156 H   0  0  0  0  0  0  0  0  0  0  0  0
   14.9398   -1.4442    0.8863 H   0  0  0  0  0  0  0  0  0  0  0  0
   14.2100   -2.8781   -0.9971 H   0  0  0  0  0  0  0  0  0  0  0  0
   11.8956   -2.8793   -1.7104 H   0  0  0  0  0  0  0  0  0  0  0  0
    9.9625   -2.9110   -1.8231 H   0  0  0  0  0  0  0  0  0  0  0  0
    9.2011    2.1266    3.5494 H   0  0  0  0  0  0  0  0  0  0  0  0
    2.3037    1.0675    0.8651 H   0  0  0  0  0  0  0  0  0  0  0  0
    4.0742    1.1437    3.7728 H   0  0  0  0  0  0  0  0  0  0  0  0
  1  2  1  0  0  0  0
  1 30  1  0  0  0  0
  1 31  1  0  0  0  0
  1 32  1  0  0  0  0
  2  3  2  0  0  0  0
  2 25  1  0  0  0  0
  3  4  1  0  0  0  0
  3 33  1  0  0  0  0
  4  5  1  0  0  0  0
  4  6  2  0  0  0  0
  5 34  1  0  0  0  0
  5 35  1  0  0  0  0
  5 36  1  0  0  0  0
  6  7  1  0  0  0  0
  6 24  1  0  0  0  0
  7  8  2  3  0  0  0
  8  9  1  0  0  0  0
  9 10  2  0  0  0  0
  9 18  1  0  0  0  0
 10 11  1  0  0  0  0
 10 37  1  0  0  0  0
 11 12  2  0  0  0  0
 11 20  1  0  0  0  0
 12 13  1  0  0  0  0
 12 17  1  0  0  0  0
 13 14  2  0  0  0  0
 13 38  1  0  0  0  0
 14 15  1  0  0  0  0
 14 39  1  0  0  0  0
 15 16  2  0  0  0  0
 15 40  1  0  0  0  0
 16 17  1  0  0  0  0
 16 41  1  0  0  0  0
 17 18  2  0  0  0  0
 18 19  1  0  0  0  0
 19 42  1  0  0  0  0
 20 21  2  0  0  0  0
 20 22  2  0  0  0  0
 20 23  1  0  0  0  0
 23 43  1  0  0  0  0
 24 25  2  0  0  0  0
 24 26  1  0  0  0  0
 25 44  1  0  0  0  0
 26 27  2  0  0  0  0
 26 28  2  0  0  0  0
 26 29  1  0  0  0  0
 29 45  1  0  0  0  0
M  END
$$$$

 OpenBabel12201709243D

 29 30  0  0  1  0  0  0  0  0999 V2000
    0.9481   -0.0396   -0.0225 C   0  0  0  0  0  0  0  0  0  0  0  0
    2.4801    0.0681    0.0136 C   0  0  0  0  0  0  0  0  0  0  0  0
    2.9767    0.2058   -1.4336 C   0  0  0  0  0  0  0  0  0  0  0  0
    2.9843   -1.1861    0.5206 O   0  0  0  0  0  0  0  0  0  0  0  0
    3.7936   -1.0450    1.7061 C   0  0  3  0  0  0  0  0  0  0  0  0
    4.2510   -2.4398    2.1198 C   0  0  0  0  0  0  0  0  0  0  0  0
    4.9982   -0.1457    1.3679 C   0  0  0  0  0  0  0  0  0  0  0  0
    4.5050    1.2482    0.9629 C   0  0  0  0  0  0  0  0  0  0  0  0
    2.9650    1.2415    0.9148 C   0  0  3  0  0  0  0  0  0  0  0  0
    2.4944    1.0040    2.3626 C   0  0  0  0  0  0  0  0  0  0  0  0
    2.9338   -0.3957    2.8074 C   0  0  0  0  0  0  0  0  0  0  0  0
    0.6300   -0.8306   -0.7123 H   0  0  0  0  0  0  0  0  0  0  0  0
    0.4884    0.9009   -0.3430 H   0  0  0  0  0  0  0  0  0  0  0  0
    0.5341   -0.3215    0.9506 H   0  0  0  0  0  0  0  0  0  0  0  0
    2.5703   -0.5956   -2.0621 H   0  0  0  0  0  0  0  0  0  0  0  0
    4.0642    0.1054   -1.5049 H   0  0  0  0  0  0  0  0  0  0  0  0
    2.6813    1.1663   -1.8681 H   0  0  0  0  0  0  0  0  0  0  0  0
    4.8230   -2.9165    1.3157 H   0  0  0  0  0  0  0  0  0  0  0  0
    3.3905   -3.0897    2.3152 H   0  0  0  0  0  0  0  0  0  0  0  0
    4.8748   -2.4101    3.0189 H   0  0  0  0  0  0  0  0  0  0  0  0
    5.5648   -0.5753    0.5324 H   0  0  0  0  0  0  0  0  0  0  0  0
    5.6840   -0.0665    2.2196 H   0  0  0  0  0  0  0  0  0  0  0  0
    4.9342    1.5399   -0.0018 H   0  0  0  0  0  0  0  0  0  0  0  0
    4.8608    1.9934    1.6852 H   0  0  0  0  0  0  0  0  0  0  0  0
    2.5941    2.2059    0.5503 H   0  0  0  0  0  0  0  0  0  0  0  0
    1.4079    1.1100    2.4525 H   0  0  0  0  0  0  0  0  0  0  0  0
    2.9242    1.7595    3.0322 H   0  0  0  0  0  0  0  0  0  0  0  0
    2.0392   -1.0032    2.9927 H   0  0  0  0  0  0  0  0  0  0  0  0
    3.4851   -0.3314    3.7528 H   0  0  0  0  0  0  0  0  0  0  0  0
  1  2  1  0  0  0  0
  1 12  1  0  0  0  0
  1 13  1  0  0  0  0
  1 14  1  0  0  0  0
  2  3  1  0  0  0  0
  2  4  1  0  0  0  0
  2  9  1  0  0  0  0
  3 15  1  0  0  0  0
  3 16  1  0  0  0  0
  3 17  1  0  0  0  0
  4  5  1  0  0  0  0
  5  6  1  0  0  0  0
  5  7  1  0  0  0  0
  5 11  1  0  0  0  0
  6 18  1  0  0  0  0
  6 19  1  0  0  0  0
  6 20  1  0  0  0  0
  7  8  1  0  0  0  0
  7 21  1  0  0  0  0
  7 22  1  0  0  0  0
  8  9  1  0  0  0  0
  8 23  1  0  0  0  0
  8 24  1  0  0  0  0
  9 10  1  0  0  0  0
  9 25  1  0  0  0  0
 10 11  1  0  0  0  0
 10 26  1  0  0  0  0
 10 27  1  0  0  0  0
 11 28  1  0  0  0  0
 11 29  1  0  0  0  0
M  END
$$$$

 OpenBabel12201709243D

 24 23  0  0  1  0  0  0  0  0999 V2000
    1.0151   -0.0372    0.0567 O   0  0  0  0  0  0  0  0  0  0  0  0
    2.4515    0.0901   -0.0344 C   0  0  3  0  0  0  0  0  0  0  0  0
    2.8567    1.5448    0.1794 C   0  0  0  0  0  0  0  0  0  0  0  0
    2.1784    2.6356   -1.2990 Br  0  0  0  0  0  0  0  0  0  0  0  0
    3.0355   -0.8631    1.0274 C   0  0  3  0  0  0  0  0  0  0  0  0
    2.6686   -2.2233    0.7010 O   0  0  0  0  0  0  0  0  0  0  0  0
    4.5658   -0.8394    1.2275 C   0  0  3  0  0  0  0  0  0  0  0  0
    4.8790   -1.7654    2.2825 O   0  0  0  0  0  0  0  0  0  0  0  0
    5.3701   -1.2297   -0.0348 C   0  0  3  0  0  0  0  0  0  0  0  0
    5.1052   -0.3349   -1.1146 O   0  0  0  0  0  0  0  0  0  0  0  0
    6.8762   -1.3465    0.2046 C   0  0  0  0  0  0  0  0  0  0  0  0
    7.6630    0.3972    0.6170 Br  0  0  0  0  0  0  0  0  0  0  0  0
    0.6381    0.6148   -0.5653 H   0  0  0  0  0  0  0  0  0  0  0  0
    2.6994   -0.2626   -1.0392 H   0  0  0  0  0  0  0  0  0  0  0  0
    3.9376    1.6988    0.1740 H   0  0  0  0  0  0  0  0  0  0  0  0
    2.4184    1.9733    1.0848 H   0  0  0  0  0  0  0  0  0  0  0  0
    2.5497   -0.6693    1.9928 H   0  0  0  0  0  0  0  0  0  0  0  0
    1.7939   -2.1591    0.2666 H   0  0  0  0  0  0  0  0  0  0  0  0
    4.8560    0.1554    1.5782 H   0  0  0  0  0  0  0  0  0  0  0  0
    4.2853   -2.5323    2.1377 H   0  0  0  0  0  0  0  0  0  0  0  0
    5.0308   -2.2198   -0.3623 H   0  0  0  0  0  0  0  0  0  0  0  0
    5.7579    0.3926   -1.0549 H   0  0  0  0  0  0  0  0  0  0  0  0
    7.3848   -1.6635   -0.7100 H   0  0  0  0  0  0  0  0  0  0  0  0
    7.1337   -2.0228    1.0226 H   0  0  0  0  0  0  0  0  0  0  0  0
  1  2  1  0  0  0  0
  1 13  1  0  0  0  0
  2  3  1  0  0  0  0
  2  5  1  0  0  0  0
  2 14  1  0  0  0  0
  3  4  1  0  0  0  0
  3 15  1  0  0  0  0
  3 16  1  0  0  0  0
  5  6  1  0  0  0  0
  5  7  1  0  0  0  0
  5 17  1  0  0  0  0
  6 18  1  0  0  0  0
  7  8  1  0  0  0  0
  7  9  1  0  0  0  0
  7 19  1  0  0  0  0
  8 20  1  0  0  0  0
  9 10  1  0  0  0  0
  9 11  1  0  0  0  0
  9 21  1  0  0  0  0
 10 22  1  0  0  0  0
 11 12  1  0  0  0  0
 11 23  1  0  0  0  0
 11 24  1  0  0  0  0
M  END
$$$$

 OpenBabel12201709243D

  4  3  0  0  0  0  0  0  0  0999 V2000
    0.9707    0.0467    0.0495 C   0  0  0  0  0  0  0  0  0  0  0  0
    2.1953    0.0467    0.0495 O   0  0  0  0  0  0  0  0  0  0  0  0
    0.3831    0.7281    0.6851 H   0  0  0  0  0  0  0  0  0  0  0  0
    0.3831   -0.6347   -0.5862 H   0  0  0  0  0  0  0  0  0  0  0  0
  1  2  2  0  0  0  0
  1  3  1  0  0  0  0
  1  4  1  0  0  0  0
M  END
$$$$

 OpenBabel12201709243D

 29 30  0  0  0  0  0  0  0  0999 V2000
    1.3262   -1.0168   -0.4802 C   0  0  0  0  0  0  0  0  0  0  0  0
    2.3187   -0.0508    0.1621 C   0  0  0  0  0  0  0  0  0  0  0  0
    2.9167    1.0358   -0.7968 C   0  0  0  0  0  0  0  0  0  0  0  0
    1.7111    1.8587   -1.2937 C   0  0  0  0  0  0  0  0  0  0  0  0
    1.0988    1.6441   -2.3396 O   0  0  0  0  0  0  0  0  0  0  0  0
    1.2586    2.8494   -0.4651 N   0  0  0  0  0  0  0  0  0  0  0  0
    1.9584    3.4145    0.5533 C   0  0  0  0  0  0  0  0  0  0  0  0
    1.5714    4.4430    1.0959 O   0  0  0  0  0  0  0  0  0  0  0  0
    3.1435    2.8361    0.8774 N   0  0  0  0  0  0  0  0  0  0  0  0
    3.8003    1.9107    0.1095 C   0  0  0  0  0  0  0  0  0  0  0  0
    5.0148    1.7779    0.2426 O   0  0  0  0  0  0  0  0  0  0  0  0
    3.7427    0.4535   -1.9687 C   0  0  0  0  0  0  0  0  0  0  0  0
    3.9002    1.1751   -3.1683 C   0  0  0  0  0  0  0  0  0  0  0  0
    4.5144    0.6019   -4.2863 C   0  0  0  0  0  0  0  0  0  0  0  0
    5.0273   -0.6881   -4.2180 C   0  0  0  0  0  0  0  0  0  0  0  0
    4.9706   -1.3852   -3.0170 C   0  0  0  0  0  0  0  0  0  0  0  0
    4.3528   -0.8134   -1.8998 C   0  0  0  0  0  0  0  0  0  0  0  0
    1.0823   -1.8169    0.2262 H   0  0  0  0  0  0  0  0  0  0  0  0
    1.7201   -1.4837   -1.3860 H   0  0  0  0  0  0  0  0  0  0  0  0
    0.3913   -0.5093   -0.7355 H   0  0  0  0  0  0  0  0  0  0  0  0
    3.1276   -0.6267    0.6296 H   0  0  0  0  0  0  0  0  0  0  0  0
    1.8001    0.4302    1.0028 H   0  0  0  0  0  0  0  0  0  0  0  0
    0.4516    3.3662   -0.7924 H   0  0  0  0  0  0  0  0  0  0  0  0
    3.7115    3.3646    1.5248 H   0  0  0  0  0  0  0  0  0  0  0  0
    3.5038    2.1828   -3.2756 H   0  0  0  0  0  0  0  0  0  0  0  0
    4.5695    1.1588   -5.2183 H   0  0  0  0  0  0  0  0  0  0  0  0
    5.4746   -1.1461   -5.0959 H   0  0  0  0  0  0  0  0  0  0  0  0
    5.3925   -2.3849   -2.9504 H   0  0  0  0  0  0  0  0  0  0  0  0
    4.3391   -1.4014   -0.9862 H   0  0  0  0  0  0  0  0  0  0  0  0
  1  2  1  0  0  0  0
  1 18  1  0  0  0  0
  1 19  1  0  0  0  0
  1 20  1  0  0  0  0
  2  3  1  0  0  0  0
  2 21  1  0  0  0  0
  2 22  1  0  0  0  0
  3  4  1  0  0  0  0
  3 10  1  0  0  0  0
  3 12  1  0  0  0  0
  4  5  2  0  0  0  0
  4  6  1  0  0  0  0
  6  7  1  0  0  0  0
  6 23  1  0  0  0  0
  7  8  2  0  0  0  0
  7  9  1  0  0  0  0
  9 10  1  0  0  0  0
  9 24  1  0  0  0  0
 10 11  2  0  0  0  0
 12 13  2  0  0  0  0
 12 17  1  0  0  0  0
 13 14  1  0  0  0  0
 13 25  1  0  0  0  0
 14 15  2  0  0  0  0
 14 26  1  0  0  0  0
 15 16  1  0  0  0  0
 15 27  1  0  0  0  0
 16 17  2  0  0  0  0
 16 28  1  0  0  0  0
 17 29  1  0  0  0  0
M  END
$$$$

 OpenBabel12201709243D

 42 45  0  0  1  0  0  0  0  0999 V2000
    1.0898   -0.2084   -0.4587 C   0  0  0  0  0  0  0  0  0  0  0  0
    1.3003   -0.2947   -1.8612 O   0  0  0  0  0  0  0  0  0  0  0  0
    2.5207    0.3281   -2.3168 C   0  0  3  0  0  0  0  0  0  0  0  0
    2.4651    1.8086   -2.1518 C   0  0  3  0  0  0  0  0  0  0  0  0
    1.5181    2.8712   -2.1130 N   0  0  0  0  0  0  0  0  0  0  0  0
    1.2831    2.0772   -3.2650 C   0  0  3  0  0  0  0  0  0  0  0  0
    1.9388    1.4179   -4.4314 C   0  0  0  0  0  0  0  0  0  0  0  0
    2.5517    0.2690   -3.8022 N   0  0  0  0  0  0  0  0  0  0  0  0
    2.8276   -1.0212   -4.1877 C   0  0  0  0  0  0  0  0  0  0  0  0
    3.3724   -1.6476   -3.1361 C   0  0  0  0  0  0  0  0  0  0  0  0
    3.7196   -0.6187   -2.0442 C   0  0  3  0  0  0  0  0  0  0  0  0
    5.0874    0.0291   -2.3366 C   0  0  0  0  0  0  0  0  0  0  0  0
    6.1352   -0.9525   -2.4437 O   0  0  0  0  0  0  0  0  0  0  0  0
    6.7738   -1.2710   -1.2960 C   0  0  0  0  0  0  0  0  0  0  0  0
    6.4960   -0.8536   -0.1829 O   0  0  0  0  0  0  0  0  0  0  0  0
    7.8016   -2.1051   -1.5516 N   0  0  0  0  0  0  0  0  0  0  0  0
    2.9985   -3.0428   -2.9044 C   0  0  0  0  0  0  0  0  0  0  0  0
    3.2279   -3.5912   -1.8263 O   0  0  0  0  0  0  0  0  0  0  0  0
    2.1581   -3.7411   -3.9715 C   0  0  0  0  0  0  0  0  0  0  0  0
    1.8643   -3.1186   -5.1327 C   0  0  0  0  0  0  0  0  0  0  0  0
    1.1024   -3.7134   -6.2791 C   0  0  0  0  0  0  0  0  0  0  0  0
    2.2417   -1.6953   -5.3516 C   0  0  0  0  0  0  0  0  0  0  0  0
    2.0294   -1.1059   -6.4055 O   0  0  0  0  0  0  0  0  0  0  0  0
    1.6989   -5.0084   -3.6185 N   0  0  0  0  0  0  0  0  0  0  0  0
    1.9032   -0.6721    0.1044 H   0  0  0  0  0  0  0  0  0  0  0  0
    0.1677   -0.7493   -0.2267 H   0  0  0  0  0  0  0  0  0  0  0  0
    0.9594    0.8296   -0.1438 H   0  0  0  0  0  0  0  0  0  0  0  0
    3.4624    2.2103   -2.3087 H   0  0  0  0  0  0  0  0  0  0  0  0
    1.9035    3.7780   -2.3736 H   0  0  0  0  0  0  0  0  0  0  0  0
    0.3154    1.5768   -3.1637 H   0  0  0  0  0  0  0  0  0  0  0  0
    2.7051    2.0656   -4.8716 H   0  0  0  0  0  0  0  0  0  0  0  0
    1.2192    1.1344   -5.2040 H   0  0  0  0  0  0  0  0  0  0  0  0
    3.7090   -1.0771   -1.0519 H   0  0  0  0  0  0  0  0  0  0  0  0
    5.3365    0.7879   -1.5854 H   0  0  0  0  0  0  0  0  0  0  0  0
    5.0956    0.5575   -3.3000 H   0  0  0  0  0  0  0  0  0  0  0  0
    7.9900   -2.3902   -2.4997 H   0  0  0  0  0  0  0  0  0  0  0  0
    8.3751   -2.4381   -0.7925 H   0  0  0  0  0  0  0  0  0  0  0  0
    0.7257   -4.7181   -6.0727 H   0  0  0  0  0  0  0  0  0  0  0  0
    1.7501   -3.7798   -7.1602 H   0  0  0  0  0  0  0  0  0  0  0  0
    0.2400   -3.0870   -6.5326 H   0  0  0  0  0  0  0  0  0  0  0  0
    1.7263   -5.1189   -2.5990 H   0  0  0  0  0  0  0  0  0  0  0  0
    0.7739   -5.2156   -3.9854 H   0  0  0  0  0  0  0  0  0  0  0  0
  1  2  1  0  0  0  0
  1 25  1  0  0  0  0
  1 26  1  0  0  0  0
  1 27  1  0  0  0  0
  2  3  1  0  0  0  0
  3  4  1  0  0  0  0
  3  8  1  0  0  0  0
  3 11  1  0  0  0  0
  4  5  1  0  0  0  0
  4  6  1  0  0  0  0
  4 28  1  0  0  0  0
  5  6  1  0  0  0  0
  5 29  1  0  0  0  0
  6  7  1  0  0  0  0
  6 30  1  0  0  0  0
  7  8  1  0  0  0  0
  7 31  1  0  0  0  0
  7 32  1  0  0  0  0
  8  9  1  0  0  0  0
  9 10  2  0  0  0  0
  9 22  1  0  0  0  0
 10 11  1  0  0  0  0
 10 17  1  0  0  0  0
 11 12  1  0  0  0  0
 11 33  1  0  0  0  0
 12 13  1  0  0  0  0
 12 34  1  0  0  0  0
 12 35  1  0  0  0  0
 13 14  1  0  0  0  0
 14 15  2  0  0  0  0
 14 16  1  0  0  0  0
 16 36  1  0  0  0  0
 16 37  1  0  0  0  0
 17 18  2  0  0  0  0
 17 19  1  0  0  0  0
 19 20  2  0  0  0  0
 19 24  1  0  0  0  0
 20 21  1  0  0  0  0
 20 22  1  0  0  0  0
 21 38  1  0  0  0  0
 21 39  1  0  0  0  0
 21 40  1  0  0  0  0
 22 23  2  0  0  0  0
 24 41  1  0  0  0  0
 24 42  1  0  0  0  0
M  END
$$$$

 OpenBabel12201709243D

 29 29  0  0  0  0  0  0  0  0999 V2000
    2.6677   -0.4858   -1.2508 Cl  0  0  0  0  0  0  0  0  0  0  0  0
    2.2743    0.3348    0.2833 C   0  0  0  0  0  0  0  0  0  0  0  0
    3.0227   -0.2757    1.4796 C   0  0  0  0  0  0  0  0  0  0  0  0
    4.4784   -0.2438    1.3548 N   0  0  0  0  0  0  0  0  0  0  0  0
    5.0539    1.1145    1.3305 C   0  0  0  0  0  0  0  0  0  0  0  0
    4.7666    2.0128    2.5378 C   0  0  0  0  0  0  0  0  0  0  0  0
    5.5951    3.5821    2.3374 Cl  0  0  0  0  0  0  0  0  0  0  0  0
    5.4330   -1.4229    1.9907 P   0  0  3  0  0  0  0  0  0  0  0  0
    5.7060   -1.2474    3.4496 O   0  0  0  0  0  0  0  0  0  0  0  0
    4.8490   -2.8841    1.5889 N   0  0  0  0  0  0  0  0  0  0  0  0
    4.8080   -3.3116    0.2069 C   0  0  0  0  0  0  0  0  0  0  0  0
    6.0904   -2.9752   -0.5594 C   0  0  0  0  0  0  0  0  0  0  0  0
    6.6146   -1.5729   -0.2942 C   0  0  0  0  0  0  0  0  0  0  0  0
    6.7803   -1.3503    1.0998 O   0  0  0  0  0  0  0  0  0  0  0  0
    1.1948    0.2404    0.4283 H   0  0  0  0  0  0  0  0  0  0  0  0
    2.5040    1.3964    0.1566 H   0  0  0  0  0  0  0  0  0  0  0  0
    2.6829   -1.3128    1.5798 H   0  0  0  0  0  0  0  0  0  0  0  0
    2.7028    0.2174    2.4036 H   0  0  0  0  0  0  0  0  0  0  0  0
    4.7358    1.6158    0.4112 H   0  0  0  0  0  0  0  0  0  0  0  0
    6.1439    1.0329    1.2295 H   0  0  0  0  0  0  0  0  0  0  0  0
    5.1169    1.5690    3.4731 H   0  0  0  0  0  0  0  0  0  0  0  0
    3.7009    2.2383    2.6256 H   0  0  0  0  0  0  0  0  0  0  0  0
    4.0426   -3.2015    2.1101 H   0  0  0  0  0  0  0  0  0  0  0  0
    3.9433   -2.8734   -0.2911 H   0  0  0  0  0  0  0  0  0  0  0  0
    4.6664   -4.4016    0.1732 H   0  0  0  0  0  0  0  0  0  0  0  0
    5.9111   -3.0979   -1.6350 H   0  0  0  0  0  0  0  0  0  0  0  0
    6.8674   -3.6941   -0.2744 H   0  0  0  0  0  0  0  0  0  0  0  0
    5.9388   -0.8138   -0.7140 H   0  0  0  0  0  0  0  0  0  0  0  0
    7.5829   -1.4317   -0.7743 H   0  0  0  0  0  0  0  0  0  0  0  0
  1  2  1  0  0  0  0
  2  3  1  0  0  0  0
  2 15  1  0  0  0  0
  2 16  1  0  0  0  0
  3  4  1  0  0  0  0
  3 17  1  0  0  0  0
  3 18  1  0  0  0  0
  4  5  1  0  0  0  0
  4  8  1  0  0  0  0
  5  6  1  0  0  0  0
  5 19  1  0  0  0  0
  5 20  1  0  0  0  0
  6  7  1  0  0  0  0
  6 21  1  0  0  0  0
  6 22  1  0  0  0  0
  8  9  2  0  0  0  0
  8 10  1  0  0  0  0
  8 14  1  0  0  0  0
 10 11  1  0  0  0  0
 10 23  1  0  0  0  0
 11 12  1  0  0  0  0
 11 24  1  0  0  0  0
 11 25  1  0  0  0  0
 12 13  1  0  0  0  0
 12 26  1  0  0  0  0
 12 27  1  0  0  0  0
 13 14  1  0  0  0  0
 13 28  1  0  0  0  0
 13 29  1  0  0  0  0
M  END
$$$$

 OpenBabel12201709243D

 54 57  0  0  1  0  0  0  0  0999 V2000
    2.5279    0.7711    3.6661 C   0  0  0  0  0  0  0  0  0  0  0  0
    3.3023    0.2508    2.4131 C   0  0  3  0  0  0  0  0  0  0  0  0
    2.3886   -0.7667    1.6962 C   0  0  0  0  0  0  0  0  0  0  0  0
    2.4921   -2.2050    2.2470 C   0  0  3  0  0  0  0  0  0  0  0  0
    1.8043   -2.3749    3.4771 O   0  0  0  0  0  0  0  0  0  0  0  0
    3.9755   -2.6116    2.3518 C   0  0  3  0  0  0  0  0  0  0  0  0
    4.7326   -1.7367    3.4063 C   0  0  3  0  0  0  0  0  0  0  0  0
    6.1665   -2.2423    3.5868 C   0  0  0  0  0  0  0  0  0  0  0  0
    6.1775   -3.7059    4.0017 C   0  0  0  0  0  0  0  0  0  0  0  0
    5.5574   -4.6049    2.9655 C   0  0  0  0  0  0  0  0  0  0  0  0
    6.2908   -5.6366    2.4827 C   0  0  0  0  0  0  0  0  0  0  0  0
    6.8948   -5.1898    1.1773 C   0  0  0  0  0  0  0  0  0  0  0  0
    8.0672   -5.3942    0.8780 O   0  0  0  0  0  0  0  0  0  0  0  0
    5.9382   -4.5754    0.2200 C   0  0  0  0  0  0  0  0  0  0  0  0
    4.7191   -4.2094    0.6557 C   0  0  0  0  0  0  0  0  0  0  0  0
    4.3325   -4.1344    2.1680 C   0  0  3  0  0  0  0  0  0  0  0  0
    3.1809   -5.1283    2.4314 C   0  0  0  0  0  0  0  0  0  0  0  0
    4.7087   -0.3253    2.7872 C   0  0  3  0  0  0  0  0  0  0  0  0
    5.4868    0.9016    3.2839 C   0  0  0  0  0  0  0  0  0  0  0  0
    4.8298    2.0960    2.5054 C   0  0  0  0  0  0  0  0  0  0  0  0
    3.8390    1.4304    1.5245 C   0  0  3  0  0  0  0  0  0  0  0  0
    4.6470    0.9382    0.4243 O   0  0  0  0  0  0  0  0  0  0  0  0
    2.8102    2.3446    0.8399 C   0  0  0  0  0  0  0  0  0  0  0  0
    1.6468    2.4599    1.2257 O   0  0  0  0  0  0  0  0  0  0  0  0
    3.2666    3.0517   -0.4457 C   0  0  0  0  0  0  0  0  0  0  0  0
    2.2583    3.8934   -0.9837 O   0  0  0  0  0  0  0  0  0  0  0  0
    1.7874    0.0572    4.0335 H   0  0  0  0  0  0  0  0  0  0  0  0
    1.9624    1.6808    3.4456 H   0  0  0  0  0  0  0  0  0  0  0  0
    3.1778    0.9964    4.5154 H   0  0  0  0  0  0  0  0  0  0  0  0
    2.6395   -0.8150    0.6316 H   0  0  0  0  0  0  0  0  0  0  0  0
    1.3444   -0.4305    1.7388 H   0  0  0  0  0  0  0  0  0  0  0  0
    1.9694   -2.8317    1.5191 H   0  0  0  0  0  0  0  0  0  0  0  0
    2.2656   -1.9033    4.1913 H   0  0  0  0  0  0  0  0  0  0  0  0
    4.3613   -2.1946    1.4101 H   0  0  0  0  0  0  0  0  0  0  0  0
    4.2374   -1.7439    4.3831 H   0  0  0  0  0  0  0  0  0  0  0  0
    6.6812   -1.6465    4.3491 H   0  0  0  0  0  0  0  0  0  0  0  0
    6.7348   -2.1256    2.6545 H   0  0  0  0  0  0  0  0  0  0  0  0
    5.6333   -3.8339    4.9447 H   0  0  0  0  0  0  0  0  0  0  0  0
    7.2160   -4.0087    4.1963 H   0  0  0  0  0  0  0  0  0  0  0  0
    5.7360   -6.5186    2.1331 H   0  0  0  0  0  0  0  0  0  0  0  0
    6.2720   -4.4544   -0.8030 H   0  0  0  0  0  0  0  0  0  0  0  0
    4.0173   -3.7928   -0.0651 H   0  0  0  0  0  0  0  0  0  0  0  0
    2.1821   -4.7149    2.2870 H   0  0  0  0  0  0  0  0  0  0  0  0
    3.2115   -5.5171    3.4556 H   0  0  0  0  0  0  0  0  0  0  0  0
    3.2401   -5.9923    1.7566 H   0  0  0  0  0  0  0  0  0  0  0  0
    5.2515   -0.5305    1.8537 H   0  0  0  0  0  0  0  0  0  0  0  0
    6.5462    0.8210    3.0128 H   0  0  0  0  0  0  0  0  0  0  0  0
    5.4273    1.0445    4.3664 H   0  0  0  0  0  0  0  0  0  0  0  0
    5.5925    2.6936    1.9960 H   0  0  0  0  0  0  0  0  0  0  0  0
    4.3069    2.7544    3.2087 H   0  0  0  0  0  0  0  0  0  0  0  0
    4.1863    0.2065   -0.0191 H   0  0  0  0  0  0  0  0  0  0  0  0
    3.4960    2.2993   -1.2071 H   0  0  0  0  0  0  0  0  0  0  0  0
    4.1563    3.6536   -0.2445 H   0  0  0  0  0  0  0  0  0  0  0  0
    1.4051    3.5118   -0.6974 H   0  0  0  0  0  0  0  0  0  0  0  0
  1  2  1  0  0  0  0
  1 27  1  0  0  0  0
  1 28  1  0  0  0  0
  1 29  1  0  0  0  0
  2  3  1  0  0  0  0
  2 18  1  0  0  0  0
  2 21  1  0  0  0  0
  3  4  1  0  0  0  0
  3 30  1  0  0  0  0
  3 31  1  0  0  0  0
  4  5  1  0  0  0  0
  4  6  1  0  0  0  0
  4 32  1  0  0  0  0
  5 33  1  0  0  0  0
  6  7  1  0  0  0  0
  6 16  1  0  0  0  0
  6 34  1  0  0  0  0
  7  8  1  0  0  0  0
  7 18  1  0  0  0  0
  7 35  1  0  0  0  0
  8  9  1  0  0  0  0
  8 36  1  0  0  0  0
  8 37  1  0  0  0  0
  9 10  1  0  0  0  0
  9 38  1  0  0  0  0
  9 39  1  0  0  0  0
 10 11  2  0  0  0  0
 10 16  1  0  0  0  0
 11 12  1  0  0  0  0
 11 40  1  0  0  0  0
 12 13  2  0  0  0  0
 12 14  1  0  0  0  0
 14 15  2  0  0  0  0
 14 41  1  0  0  0  0
 15 16  1  0  0  0  0
 15 42  1  0  0  0  0
 16 17  1  0  0  0  0
 17 43  1  0  0  0  0
 17 44  1  0  0  0  0
 17 45  1  0  0  0  0
 18 19  1  0  0  0  0
 18 46  1  0  0  0  0
 19 20  1  0  0  0  0
 19 47  1  0  0  0  0
 19 48  1  0  0  0  0
 20 21  1  0  0  0  0
 20 49  1  0  0  0  0
 20 50  1  0  0  0  0
 21 22  1  0  0  0  0
 21 23  1  0  0  0  0
 22 51  1  0  0  0  0
 23 24  2  0  0  0  0
 23 25  1  0  0  0  0
 25 26  1  0  0  0  0
 25 52  1  0  0  0  0
 25 53  1  0  0  0  0
 26 54  1  0  0  0  0
M  END
$$$$

 OpenBabel12201709243D

 44 47  0  0  1  0  0  0  0  0999 V2000
    1.5298   -0.9617    0.5185 C   0  0  0  0  0  0  0  0  0  0  0  0
    2.9777   -0.6357    0.9548 C   0  0  3  0  0  0  0  0  0  0  0  0
    3.5032   -1.3111    2.2677 C   0  0  0  0  0  0  0  0  0  0  0  0
    3.2486   -0.5334    3.5432 C   0  0  0  0  0  0  0  0  0  0  0  0
    2.0323    0.3373    3.3410 C   0  0  3  0  0  0  0  0  0  0  0  0
    2.3750    1.4756    2.3428 C   0  0  3  0  0  0  0  0  0  0  0  0
    2.8970    2.6888    3.1326 C   0  0  0  0  0  0  0  0  0  0  0  0
    1.8940    3.1056    4.2620 C   0  0  0  0  0  0  0  0  0  0  0  0
    1.3719    1.9750    5.1325 C   0  0  0  0  0  0  0  0  0  0  0  0
    0.7454    2.1890    6.3800 C   0  0  0  0  0  0  0  0  0  0  0  0
    0.2160    1.1071    7.1042 C   0  0  0  0  0  0  0  0  0  0  0  0
   -0.3682    1.2577    8.3260 O   0  0  0  0  0  0  0  0  0  0  0  0
    0.2453   -0.1849    6.6106 C   0  0  0  0  0  0  0  0  0  0  0  0
    0.8407   -0.3974    5.3824 C   0  0  0  0  0  0  0  0  0  0  0  0
    1.4042    0.6748    4.6550 C   0  0  0  0  0  0  0  0  0  0  0  0
    3.1544    0.9083    1.0631 C   0  0  3  0  0  0  0  0  0  0  0  0
    4.6643    1.0905    0.7629 C   0  0  0  0  0  0  0  0  0  0  0  0
    5.1644   -0.2062    0.0533 C   0  0  0  0  0  0  0  0  0  0  0  0
    3.9429   -1.0907   -0.1502 C   0  0  3  0  0  0  0  0  0  0  0  0
    3.4137   -0.8931   -1.4528 O   0  0  0  0  0  0  0  0  0  0  0  0
    1.2169   -0.2811   -0.2866 H   0  0  0  0  0  0  0  0  0  0  0  0
    0.7534   -0.8603    1.2728 H   0  0  0  0  0  0  0  0  0  0  0  0
    1.4497   -1.9848    0.1352 H   0  0  0  0  0  0  0  0  0  0  0  0
    4.5928   -1.4374    2.2450 H   0  0  0  0  0  0  0  0  0  0  0  0
    3.0999   -2.3254    2.3534 H   0  0  0  0  0  0  0  0  0  0  0  0
    4.1151    0.0921    3.8095 H   0  0  0  0  0  0  0  0  0  0  0  0
    3.1505   -1.2420    4.3737 H   0  0  0  0  0  0  0  0  0  0  0  0
    1.2417   -0.2539    2.8987 H   0  0  0  0  0  0  0  0  0  0  0  0
    1.4083    1.8124    1.9339 H   0  0  0  0  0  0  0  0  0  0  0  0
    3.0370    3.5472    2.4639 H   0  0  0  0  0  0  0  0  0  0  0  0
    3.8720    2.4692    3.5819 H   0  0  0  0  0  0  0  0  0  0  0  0
    1.0194    3.5802    3.7907 H   0  0  0  0  0  0  0  0  0  0  0  0
    2.3650    3.8610    4.9004 H   0  0  0  0  0  0  0  0  0  0  0  0
    0.6746    3.1909    6.7866 H   0  0  0  0  0  0  0  0  0  0  0  0
   -0.2541    2.1816    8.6061 H   0  0  0  0  0  0  0  0  0  0  0  0
   -0.1733   -1.0154    7.1596 H   0  0  0  0  0  0  0  0  0  0  0  0
    0.8653   -1.4082    4.9750 H   0  0  0  0  0  0  0  0  0  0  0  0
    2.6624    1.3863    0.2008 H   0  0  0  0  0  0  0  0  0  0  0  0
    5.2688    1.2938    1.6495 H   0  0  0  0  0  0  0  0  0  0  0  0
    4.8116    1.9219    0.0618 H   0  0  0  0  0  0  0  0  0  0  0  0
    5.8903   -0.7180    0.6976 H   0  0  0  0  0  0  0  0  0  0  0  0
    5.6713   -0.0041   -0.8957 H   0  0  0  0  0  0  0  0  0  0  0  0
    4.1738   -2.1599   -0.0436 H   0  0  0  0  0  0  0  0  0  0  0  0
    3.6551   -1.6790   -1.9757 H   0  0  0  0  0  0  0  0  0  0  0  0
  1  2  1  0  0  0  0
  1 21  1  0  0  0  0
  1 22  1  0  0  0  0
  1 23  1  0  0  0  0
  2  3  1  0  0  0  0
  2 16  1  0  0  0  0
  2 19  1  0  0  0  0
  3  4  1  0  0  0  0
  3 24  1  0  0  0  0
  3 25  1  0  0  0  0
  4  5  1  0  0  0  0
  4 26  1  0  0  0  0
  4 27  1  0  0  0  0
  5  6  1  0  0  0  0
  5 15  1  0  0  0  0
  5 28  1  0  0  0  0
  6  7  1  0  0  0  0
  6 16  1  0  0  0  0
  6 29  1  0  0  0  0
  7  8  1  0  0  0  0
  7 30  1  0  0  0  0
  7 31  1  0  0  0  0
  8  9  1  0  0  0  0
  8 32  1  0  0  0  0
  8 33  1  0  0  0  0
  9 10  2  0  0  0  0
  9 15  1  0  0  0  0
 10 11  1  0  0  0  0
 10 34  1  0  0  0  0
 11 12  1  0  0  0  0
 11 13  2  0  0  0  0
 12 35  1  0  0  0  0
 13 14  1  0  0  0  0
 13 36  1  0  0  0  0
 14 15  2  0  0  0  0
 14 37  1  0  0  0  0
 16 17  1  0  0  0  0
 16 38  1  0  0  0  0
 17 18  1  0  0  0  0
 17 39  1  0  0  0  0
 17 40  1  0  0  0  0
 18 19  1  0  0  0  0
 18 41  1  0  0  0  0
 18 42  1  0  0  0  0
 19 20  1  0  0  0  0
 19 43  1  0  0  0  0
 20 44  1  0  0  0  0
M  END
$$$$

 OpenBabel12201709243D

 28 29  0  0  0  0  0  0  0  0999 V2000
    0.8669   -0.2906    0.2513 Cl  0  0  0  0  0  0  0  0  0  0  0  0
    2.5773   -0.2153    0.0891 C   0  0  0  0  0  0  0  0  0  0  0  0
    3.1434    0.3331   -1.0563 C   0  0  0  0  0  0  0  0  0  0  0  0
    4.5350    0.3972   -1.1817 C   0  0  0  0  0  0  0  0  0  0  0  0
    5.3833   -0.0978   -0.1695 C   0  0  0  0  0  0  0  0  0  0  0  0
    4.7848   -0.6706    0.9630 C   0  0  0  0  0  0  0  0  0  0  0  0
    3.3920   -0.7163    1.0988 C   0  0  0  0  0  0  0  0  0  0  0  0
    6.9117   -0.0416   -0.3705 C   0  0  0  0  0  0  0  0  0  0  0  0
    7.6335    0.8620    0.6494 C   0  0  0  0  0  0  0  0  0  0  0  0
    7.6555    0.5819    2.0259 C   0  0  0  0  0  0  0  0  0  0  0  0
    8.3360    1.4046    2.9288 C   0  0  0  0  0  0  0  0  0  0  0  0
    9.0166    2.5224    2.4657 C   0  0  0  0  0  0  0  0  0  0  0  0
    9.8656    3.5273    3.5736 Cl  0  0  0  0  0  0  0  0  0  0  0  0
    9.0197    2.8251    1.1066 C   0  0  0  0  0  0  0  0  0  0  0  0
    8.3353    2.0016    0.2046 C   0  0  0  0  0  0  0  0  0  0  0  0
    7.6303   -1.4111   -0.7335 C   0  0  0  0  0  0  0  0  0  0  0  0
    6.5044   -2.8050   -0.9814 Cl  0  0  0  0  0  0  0  0  0  0  0  0
    8.5229   -1.2203   -2.3120 Cl  0  0  0  0  0  0  0  0  0  0  0  0
    8.8622   -1.9696    0.4621 Cl  0  0  0  0  0  0  0  0  0  0  0  0
    2.5102    0.7076   -1.8557 H   0  0  0  0  0  0  0  0  0  0  0  0
    4.9450    0.8259   -2.0953 H   0  0  0  0  0  0  0  0  0  0  0  0
    5.3743   -1.1161    1.7569 H   0  0  0  0  0  0  0  0  0  0  0  0
    2.9518   -1.1554    1.9915 H   0  0  0  0  0  0  0  0  0  0  0  0
    6.9851    0.5479   -1.2982 H   0  0  0  0  0  0  0  0  0  0  0  0
    7.1781   -0.2987    2.4382 H   0  0  0  0  0  0  0  0  0  0  0  0
    8.3388    1.1591    3.9882 H   0  0  0  0  0  0  0  0  0  0  0  0
    9.5592    3.6949    0.7412 H   0  0  0  0  0  0  0  0  0  0  0  0
    8.3593    2.2655   -0.8519 H   0  0  0  0  0  0  0  0  0  0  0  0
  1  2  1  0  0  0  0
  2  3  2  0  0  0  0
  2  7  1  0  0  0  0
  3  4  1  0  0  0  0
  3 20  1  0  0  0  0
  4  5  2  0  0  0  0
  4 21  1  0  0  0  0
  5  6  1  0  0  0  0
  5  8  1  0  0  0  0
  6  7  2  0  0  0  0
  6 22  1  0  0  0  0
  7 23  1  0  0  0  0
  8  9  1  0  0  0  0
  8 16  1  0  0  0  0
  8 24  1  0  0  0  0
  9 10  2  0  0  0  0
  9 15  1  0  0  0  0
 10 11  1  0  0  0  0
 10 25  1  0  0  0  0
 11 12  2  0  0  0  0
 11 26  1  0  0  0  0
 12 13  1  0  0  0  0
 12 14  1  0  0  0  0
 14 15  2  0  0  0  0
 14 27  1  0  0  0  0
 15 28  1  0  0  0  0
 16 17  1  0  0  0  0
 16 18  1  0  0  0  0
 16 19  1  0  0  0  0
M  END
$$$$

 OpenBabel12201709243D

 32 36  0  0  0  0  0  0  0  0999 V2000
    4.8094   -0.1547   -0.0008 C   0  0  0  0  0  0  0  0  0  0  0  0
    4.4346    1.1791   -0.0012 C   0  0  0  0  0  0  0  0  0  0  0  0
    3.0795    1.5200   -0.0010 C   0  0  0  0  0  0  0  0  0  0  0  0
    2.0506    0.5430   -0.0003 C   0  0  0  0  0  0  0  0  0  0  0  0
    2.4611   -0.8121   -0.0000 C   0  0  0  0  0  0  0  0  0  0  0  0
    3.8279   -1.1429   -0.0003 C   0  0  0  0  0  0  0  0  0  0  0  0
    1.5028   -1.8326    0.0005 C   0  0  0  0  0  0  0  0  0  0  0  0
    0.1330   -1.5510    0.0007 C   0  0  0  0  0  0  0  0  0  0  0  0
   -0.8088   -2.5902    0.0007 C   0  0  0  0  0  0  0  0  0  0  0  0
   -2.1770   -2.3179    0.0009 C   0  0  0  0  0  0  0  0  0  0  0  0
   -2.6383   -0.9983    0.0007 C   0  0  0  0  0  0  0  0  0  0  0  0
   -4.0120   -0.7112    0.0005 C   0  0  0  0  0  0  0  0  0  0  0  0
   -4.4622    0.6071    0.0005 C   0  0  0  0  0  0  0  0  0  0  0  0
   -3.5445    1.6545    0.0003 C   0  0  0  0  0  0  0  0  0  0  0  0
   -2.1663    1.3949    0.0003 C   0  0  0  0  0  0  0  0  0  0  0  0
   -1.2402    2.4361    0.0001 C   0  0  0  0  0  0  0  0  0  0  0  0
    0.1311    2.1673   -0.0001 C   0  0  0  0  0  0  0  0  0  0  0  0
    0.6454    0.8499    0.0000 C   0  0  0  0  0  0  0  0  0  0  0  0
   -0.3026   -0.2079    0.0004 C   0  0  0  0  0  0  0  0  0  0  0  0
   -1.7003    0.0623    0.0005 C   0  0  0  0  0  0  0  0  0  0  0  0
    5.8610   -0.4275   -0.0010 H   0  0  0  0  0  0  0  0  0  0  0  0
    5.1900    1.9604   -0.0017 H   0  0  0  0  0  0  0  0  0  0  0  0
    2.8423    2.5799   -0.0014 H   0  0  0  0  0  0  0  0  0  0  0  0
    4.1426   -2.1848   -0.0000 H   0  0  0  0  0  0  0  0  0  0  0  0
    1.8308   -2.8711    0.0006 H   0  0  0  0  0  0  0  0  0  0  0  0
   -0.4843   -3.6289    0.0007 H   0  0  0  0  0  0  0  0  0  0  0  0
   -2.8788   -3.1489    0.0008 H   0  0  0  0  0  0  0  0  0  0  0  0
   -4.7436   -1.5162    0.0008 H   0  0  0  0  0  0  0  0  0  0  0  0
   -5.5281    0.8189    0.0005 H   0  0  0  0  0  0  0  0  0  0  0  0
   -3.9126    2.6780    0.0003 H   0  0  0  0  0  0  0  0  0  0  0  0
   -1.5710    3.4722   -0.0001 H   0  0  0  0  0  0  0  0  0  0  0  0
    0.7954    3.0262   -0.0004 H   0  0  0  0  0  0  0  0  0  0  0  0
  1  2  2  0  0  0  0
  1  6  1  0  0  0  0
  1 21  1  0  0  0  0
  2  3  1  0  0  0  0
  2 22  1  0  0  0  0
  3  4  2  0  0  0  0
  3 23  1  0  0  0  0
  4  5  1  0  0  0  0
  4 18  1  0  0  0  0
  5  6  2  0  0  0  0
  5  7  1  0  0  0  0
  6 24  1  0  0  0  0
  7  8  2  0  0  0  0
  7 25  1  0  0  0  0
  8  9  1  0  0  0  0
  8 19  1  0  0  0  0
  9 10  2  0  0  0  0
  9 26  1  0  0  0  0
 10 11  1  0  0  0  0
 10 27  1  0  0  0  0
 11 12  2  0  0  0  0
 11 20  1  0  0  0  0
 12 13  1  0  0  0  0
 12 28  1  0  0  0  0
 13 14  2  0  0  0  0
 13 29  1  0  0  0  0
 14 15  1  0  0  0  0
 14 30  1  0  0  0  0
 15 16  2  0  0  0  0
 15 20  1  0  0  0  0
 16 17  1  0  0  0  0
 16 31  1  0  0  0  0
 17 18  2  0  0  0  0
 17 32  1  0  0  0  0
 18 19  1  0  0  0  0
 19 20  2  0  0  0  0
M  END
$$$$

 OpenBabel12201709243D

 43 45  0  0  0  0  0  0  0  0999 V2000
    2.6407    2.5805    0.6335 C   0  0  0  0  0  0  0  0  0  0  0  0
    3.3238    1.2530    0.3297 C   0  0  0  0  0  0  0  0  0  0  0  0
    3.8677    1.2457   -1.0972 C   0  0  0  0  0  0  0  0  0  0  0  0
    4.6384   -0.0367   -1.4413 C   0  0  0  0  0  0  0  0  0  0  0  0
    5.1078   -0.0491   -2.8968 C   0  0  0  0  0  0  0  0  0  0  0  0
    6.1641    0.9712   -3.2460 C   0  0  0  0  0  0  0  0  0  0  0  0
    6.1546    2.1426   -2.8957 O   0  0  0  0  0  0  0  0  0  0  0  0
    7.0070    0.3618   -4.1881 N   0  0  0  0  0  0  0  0  0  0  0  0
    6.7811   -1.0425   -4.2011 N   0  0  0  0  0  0  0  0  0  0  0  0
    5.6968   -1.3596   -3.3564 C   0  0  0  0  0  0  0  0  0  0  0  0
    5.2648   -2.4523   -3.0182 O   0  0  0  0  0  0  0  0  0  0  0  0
    7.8338   -1.9706   -4.5107 C   0  0  0  0  0  0  0  0  0  0  0  0
    7.6336   -3.3579   -4.4493 C   0  0  0  0  0  0  0  0  0  0  0  0
    8.6820   -4.2581   -4.6821 C   0  0  0  0  0  0  0  0  0  0  0  0
    9.9504   -3.7898   -5.0042 C   0  0  0  0  0  0  0  0  0  0  0  0
   10.1670   -2.4214   -5.1077 C   0  0  0  0  0  0  0  0  0  0  0  0
    9.1200   -1.5238   -4.8631 C   0  0  0  0  0  0  0  0  0  0  0  0
    7.3034    1.1108   -5.3676 C   0  0  0  0  0  0  0  0  0  0  0  0
    7.8826    2.3835   -5.2504 C   0  0  0  0  0  0  0  0  0  0  0  0
    8.1642    3.1472   -6.3842 C   0  0  0  0  0  0  0  0  0  0  0  0
    7.8567    2.6522   -7.6483 C   0  0  0  0  0  0  0  0  0  0  0  0
    7.2766    1.3911   -7.7787 C   0  0  0  0  0  0  0  0  0  0  0  0
    7.0120    0.6160   -6.6449 C   0  0  0  0  0  0  0  0  0  0  0  0
    2.2572    2.5899    1.6579 H   0  0  0  0  0  0  0  0  0  0  0  0
    1.8011    2.7545   -0.0474 H   0  0  0  0  0  0  0  0  0  0  0  0
    3.3421    3.4152    0.5270 H   0  0  0  0  0  0  0  0  0  0  0  0
    2.6082    0.4348    0.4655 H   0  0  0  0  0  0  0  0  0  0  0  0
    4.1413    1.0990    1.0432 H   0  0  0  0  0  0  0  0  0  0  0  0
    4.5208    2.1158   -1.2083 H   0  0  0  0  0  0  0  0  0  0  0  0
    3.0383    1.3747   -1.8035 H   0  0  0  0  0  0  0  0  0  0  0  0
    3.9810   -0.8983   -1.2663 H   0  0  0  0  0  0  0  0  0  0  0  0
    5.4929   -0.1523   -0.7636 H   0  0  0  0  0  0  0  0  0  0  0  0
    4.2505    0.1425   -3.5563 H   0  0  0  0  0  0  0  0  0  0  0  0
    6.6609   -3.7836   -4.2194 H   0  0  0  0  0  0  0  0  0  0  0  0
    8.5017   -5.3278   -4.6029 H   0  0  0  0  0  0  0  0  0  0  0  0
   10.7664   -4.4880   -5.1715 H   0  0  0  0  0  0  0  0  0  0  0  0
   11.1534   -2.0445   -5.3672 H   0  0  0  0  0  0  0  0  0  0  0  0
    9.3565   -0.4668   -4.9335 H   0  0  0  0  0  0  0  0  0  0  0  0
    8.1306    2.7908   -4.2717 H   0  0  0  0  0  0  0  0  0  0  0  0
    8.6160    4.1301   -6.2763 H   0  0  0  0  0  0  0  0  0  0  0  0
    8.0651    3.2520   -8.5309 H   0  0  0  0  0  0  0  0  0  0  0  0
    7.0208    1.0143   -8.7660 H   0  0  0  0  0  0  0  0  0  0  0  0
    6.5391   -0.3536   -6.7764 H   0  0  0  0  0  0  0  0  0  0  0  0
  1  2  1  0  0  0  0
  1 24  1  0  0  0  0
  1 25  1  0  0  0  0
  1 26  1  0  0  0  0
  2  3  1  0  0  0  0
  2 27  1  0  0  0  0
  2 28  1  0  0  0  0
  3  4  1  0  0  0  0
  3 29  1  0  0  0  0
  3 30  1  0  0  0  0
  4  5  1  0  0  0  0
  4 31  1  0  0  0  0
  4 32  1  0  0  0  0
  5  6  1  0  0  0  0
  5 10  1  0  0  0  0
  5 33  1  0  0  0  0
  6  7  2  0  0  0  0
  6  8  1  0  0  0  0
  8  9  1  0  0  0  0
  8 18  1  0  0  0  0
  9 10  1  0  0  0  0
  9 12  1  0  0  0  0
 10 11  2  0  0  0  0
 12 13  2  0  0  0  0
 12 17  1  0  0  0  0
 13 14  1  0  0  0  0
 13 34  1  0  0  0  0
 14 15  2  0  0  0  0
 14 35  1  0  0  0  0
 15 16  1  0  0  0  0
 15 36  1  0  0  0  0
 16 17  2  0  0  0  0
 16 37  1  0  0  0  0
 17 38  1  0  0  0  0
 18 19  2  0  0  0  0
 18 23  1  0  0  0  0
 19 20  1  0  0  0  0
 19 39  1  0  0  0  0
 20 21  2  0  0  0  0
 20 40  1  0  0  0  0
 21 22  1  0  0  0  0
 21 41  1  0  0  0  0
 22 23  2  0  0  0  0
 22 42  1  0  0  0  0
 23 43  1  0  0  0  0
M  END
$$$$

 OpenBabel12201709243D

 14 15  0  0  0  0  0  0  0  0999 V2000
    0.9857    0.0407   -0.0883 S   0  0  0  0  0  0  0  0  0  0  0  0
    2.7436    0.0819   -0.0844 C   0  0  0  0  0  0  0  0  0  0  0  0
    3.4272   -1.0900   -0.0817 N   0  0  0  0  0  0  0  0  0  0  0  0
    4.7750   -1.0280   -0.0786 C   0  0  0  0  0  0  0  0  0  0  0  0
    5.5587    0.0687   -0.0779 N   0  0  0  0  0  0  0  0  0  0  0  0
    4.8187    1.1870   -0.0806 C   0  0  0  0  0  0  0  0  0  0  0  0
    5.2802    2.4712   -0.0808 N   0  0  0  0  0  0  0  0  0  0  0  0
    6.2519    2.7424   -0.0788 H   0  0  0  0  0  0  0  0  0  0  0  0
    4.1922    3.2995   -0.0841 C   0  0  0  0  0  0  0  0  0  0  0  0
    3.0627    2.6240   -0.0860 N   0  0  0  0  0  0  0  0  0  0  0  0
    3.4367    1.2937   -0.0839 C   0  0  0  0  0  0  0  0  0  0  0  0
    0.9121   -1.2961   -0.0875 H   0  0  0  0  0  0  0  0  0  0  0  0
    5.2936   -1.9829   -0.0766 H   0  0  0  0  0  0  0  0  0  0  0  0
    4.2844    4.3781   -0.0849 H   0  0  0  0  0  0  0  0  0  0  0  0
  1  2  1  0  0  0  0
  1 12  1  0  0  0  0
  2  3  2  0  0  0  0
  2 11  1  0  0  0  0
  3  4  1  0  0  0  0
  4  5  2  0  0  0  0
  4 13  1  0  0  0  0
  5  6  1  0  0  0  0
  6  7  1  0  0  0  0
  6 11  2  0  0  0  0
  7  8  1  0  0  0  0
  7  9  1  0  0  0  0
  9 10  2  0  0  0  0
  9 14  1  0  0  0  0
 10 11  1  0  0  0  0
M  END
$$$$

 OpenBabel12201709243D

 84 89  0  0  1  0  0  0  0  0999 V2000
    0.6845    0.0660   -0.1286 C   0  0  0  0  0  0  0  0  0  0  0  0
    2.0971   -0.0141   -0.0199 O   0  0  0  0  0  0  0  0  0  0  0  0
    2.7033    0.9598    0.8631 C   0  0  3  0  0  0  0  0  0  0  0  0
    4.2204    0.6127    0.9349 C   0  0  3  0  0  0  0  0  0  0  0  0
    4.8924    0.7539   -0.4323 C   0  0  0  0  0  0  0  0  0  0  0  0
    4.6825    2.1383   -1.0612 C   0  0  3  0  0  0  0  0  0  0  0  0
    5.5517    3.2241   -0.4056 C   0  0  0  0  0  0  0  0  0  0  0  0
    5.3326    4.5679   -0.9529 N   0  0  3  0  0  0  0  0  0  0  0  0
    5.9606    5.5840   -0.0548 C   0  0  0  0  0  0  0  0  0  0  0  0
    5.8987    7.0546   -0.5596 C   0  0  0  0  0  0  0  0  0  0  0  0
    4.7933    7.2719   -1.5375 C   0  0  0  0  0  0  0  0  0  0  0  0
    3.9183    6.2614   -1.8673 C   0  0  0  0  0  0  0  0  0  0  0  0
    3.0863    6.7157   -2.8497 N   0  0  0  0  0  0  0  0  0  0  0  0
    2.3710    6.1792   -3.3211 H   0  0  0  0  0  0  0  0  0  0  0  0
    3.3318    8.0609   -3.0738 C   0  0  0  0  0  0  0  0  0  0  0  0
    2.6966    8.9720   -3.9295 C   0  0  0  0  0  0  0  0  0  0  0  0
    3.1462   10.2990   -3.9235 C   0  0  0  0  0  0  0  0  0  0  0  0
    2.6359   11.3215   -4.6800 O   0  0  0  0  0  0  0  0  0  0  0  0
    1.5722   10.9984   -5.5644 C   0  0  0  0  0  0  0  0  0  0  0  0
    4.2019   10.6824   -3.0937 C   0  0  0  0  0  0  0  0  0  0  0  0
    4.8440    9.7605   -2.2634 C   0  0  0  0  0  0  0  0  0  0  0  0
    4.4002    8.4285   -2.2501 C   0  0  0  0  0  0  0  0  0  0  0  0
    3.9197    4.9449   -1.1651 C   0  0  3  0  0  0  0  0  0  0  0  0
    3.0439    3.8702   -1.7857 C   0  0  0  0  0  0  0  0  0  0  0  0
    3.1939    2.5306   -1.0575 C   0  0  3  0  0  0  0  0  0  0  0  0
    2.4946    2.4009    0.3313 C   0  0  3  0  0  0  0  0  0  0  0  0
    2.8395    3.3787    1.4595 C   0  0  0  0  0  0  0  0  0  0  0  0
    3.7049    3.2056    2.3008 O   0  0  0  0  0  0  0  0  0  0  0  0
    2.0374    4.4806    1.4177 O   0  0  0  0  0  0  0  0  0  0  0  0
    2.3933    5.5078    2.3674 C   0  0  0  0  0  0  0  0  0  0  0  0
    4.4199   -0.7464    1.3772 O   0  0  0  0  0  0  0  0  0  0  0  0
    4.2848   -0.9110    2.7130 C   0  0  0  0  0  0  0  0  0  0  0  0
    4.0224   -0.0309    3.5193 O   0  0  0  0  0  0  0  0  0  0  0  0
    4.5102   -2.3185    3.1140 C   0  0  0  0  0  0  0  0  0  0  0  0
    4.5217   -2.5792    4.4834 C   0  0  0  0  0  0  0  0  0  0  0  0
    4.7292   -3.8713    4.9595 C   0  0  0  0  0  0  0  0  0  0  0  0
    4.7398   -4.1652    6.3039 O   0  0  0  0  0  0  0  0  0  0  0  0
    5.1106   -3.0979    7.1757 C   0  0  0  0  0  0  0  0  0  0  0  0
    4.8808   -4.9393    4.0459 C   0  0  0  0  0  0  0  0  0  0  0  0
    5.1113   -6.1657    4.6283 O   0  0  0  0  0  0  0  0  0  0  0  0
    4.6266   -7.3202    3.9552 C   0  0  0  0  0  0  0  0  0  0  0  0
    4.8808   -4.6766    2.6550 C   0  0  0  0  0  0  0  0  0  0  0  0
    5.0884   -5.7286    1.8015 O   0  0  0  0  0  0  0  0  0  0  0  0
    5.1254   -5.4759    0.4027 C   0  0  0  0  0  0  0  0  0  0  0  0
    4.6995   -3.3603    2.2025 C   0  0  0  0  0  0  0  0  0  0  0  0
    0.3388   -0.8175   -0.6717 H   0  0  0  0  0  0  0  0  0  0  0  0
    0.3911    0.9407   -0.7153 H   0  0  0  0  0  0  0  0  0  0  0  0
    0.2105    0.0872    0.8559 H   0  0  0  0  0  0  0  0  0  0  0  0
    2.2467    0.8362    1.8527 H   0  0  0  0  0  0  0  0  0  0  0  0
    4.7561    1.2682    1.6272 H   0  0  0  0  0  0  0  0  0  0  0  0
    4.4991   -0.0172   -1.1085 H   0  0  0  0  0  0  0  0  0  0  0  0
    5.9632    0.5310   -0.3423 H   0  0  0  0  0  0  0  0  0  0  0  0
    5.0084    2.0575   -2.1089 H   0  0  0  0  0  0  0  0  0  0  0  0
    6.6052    2.9591   -0.5642 H   0  0  0  0  0  0  0  0  0  0  0  0
    5.4125    3.2224    0.6759 H   0  0  0  0  0  0  0  0  0  0  0  0
    7.0107    5.3274    0.1296 H   0  0  0  0  0  0  0  0  0  0  0  0
    5.4629    5.5447    0.9259 H   0  0  0  0  0  0  0  0  0  0  0  0
    6.8511    7.3125   -1.0342 H   0  0  0  0  0  0  0  0  0  0  0  0
    5.7577    7.7205    0.3001 H   0  0  0  0  0  0  0  0  0  0  0  0
    1.8798    8.6391   -4.5590 H   0  0  0  0  0  0  0  0  0  0  0  0
    1.3085   11.9072   -6.1139 H   0  0  0  0  0  0  0  0  0  0  0  0
    0.6857   10.6740   -5.0100 H   0  0  0  0  0  0  0  0  0  0  0  0
    1.8805   10.2453   -6.2967 H   0  0  0  0  0  0  0  0  0  0  0  0
    4.5327   11.7182   -3.0895 H   0  0  0  0  0  0  0  0  0  0  0  0
    5.6603   10.0758   -1.6219 H   0  0  0  0  0  0  0  0  0  0  0  0
    3.4847    5.1720   -0.1948 H   0  0  0  0  0  0  0  0  0  0  0  0
    3.3173    3.7287   -2.8414 H   0  0  0  0  0  0  0  0  0  0  0  0
    1.9898    4.1750   -1.7842 H   0  0  0  0  0  0  0  0  0  0  0  0
    2.6835    1.8022   -1.7063 H   0  0  0  0  0  0  0  0  0  0  0  0
    1.4248    2.5527    0.1643 H   0  0  0  0  0  0  0  0  0  0  0  0
    2.1363    6.4764    1.9282 H   0  0  0  0  0  0  0  0  0  0  0  0
    3.4652    5.5287    2.5965 H   0  0  0  0  0  0  0  0  0  0  0  0
    1.8158    5.3683    3.2846 H   0  0  0  0  0  0  0  0  0  0  0  0
    4.3536   -1.7484    5.1609 H   0  0  0  0  0  0  0  0  0  0  0  0
    5.1169   -3.4814    8.1997 H   0  0  0  0  0  0  0  0  0  0  0  0
    4.3860   -2.2771    7.1549 H   0  0  0  0  0  0  0  0  0  0  0  0
    6.1177   -2.7359    6.9403 H   0  0  0  0  0  0  0  0  0  0  0  0
    4.6684   -8.1555    4.6620 H   0  0  0  0  0  0  0  0  0  0  0  0
    5.2734   -7.5994    3.1194 H   0  0  0  0  0  0  0  0  0  0  0  0
    3.5843   -7.2026    3.6404 H   0  0  0  0  0  0  0  0  0  0  0  0
    5.2644   -6.4350   -0.1057 H   0  0  0  0  0  0  0  0  0  0  0  0
    5.9739   -4.8348    0.1427 H   0  0  0  0  0  0  0  0  0  0  0  0
    4.1804   -5.0505    0.0494 H   0  0  0  0  0  0  0  0  0  0  0  0
    4.7040   -3.1248    1.1435 H   0  0  0  0  0  0  0  0  0  0  0  0
  1  2  1  0  0  0  0
  1 46  1  0  0  0  0
  1 47  1  0  0  0  0
  1 48  1  0  0  0  0
  2  3  1  0  0  0  0
  3  4  1  0  0  0  0
  3 26  1  0  0  0  0
  3 49  1  0  0  0  0
  4  5  1  0  0  0  0
  4 31  1  0  0  0  0
  4 50  1  0  0  0  0
  5  6  1  0  0  0  0
  5 51  1  0  0  0  0
  5 52  1  0  0  0  0
  6  7  1  0  0  0  0
  6 25  1  0  0  0  0
  6 53  1  0  0  0  0
  7  8  1  0  0  0  0
  7 54  1  0  0  0  0
  7 55  1  0  0  0  0
  8  9  1  0  0  0  0
  8 23  1  0  0  0  0
  9 10  1  0  0  0  0
  9 56  1  0  0  0  0
  9 57  1  0  0  0  0
 10 11  1  0  0  0  0
 10 58  1  0  0  0  0
 10 59  1  0  0  0  0
 11 12  2  0  0  0  0
 11 22  1  0  0  0  0
 12 13  1  0  0  0  0
 12 23  1  0  0  0  0
 13 14  1  0  0  0  0
 13 15  1  0  0  0  0
 15 16  2  0  0  0  0
 15 22  1  0  0  0  0
 16 17  1  0  0  0  0
 16 60  1  0  0  0  0
 17 18  1  0  0  0  0
 17 20  2  0  0  0  0
 18 19  1  0  0  0  0
 19 61  1  0  0  0  0
 19 62  1  0  0  0  0
 19 63  1  0  0  0  0
 20 21  1  0  0  0  0
 20 64  1  0  0  0  0
 21 22  2  0  0  0  0
 21 65  1  0  0  0  0
 23 24  1  0  0  0  0
 23 66  1  0  0  0  0
 24 25  1  0  0  0  0
 24 67  1  0  0  0  0
 24 68  1  0  0  0  0
 25 26  1  0  0  0  0
 25 69  1  0  0  0  0
 26 27  1  0  0  0  0
 26 70  1  0  0  0  0
 27 28  2  0  0  0  0
 27 29  1  0  0  0  0
 29 30  1  0  0  0  0
 30 71  1  0  0  0  0
 30 72  1  0  0  0  0
 30 73  1  0  0  0  0
 31 32  1  0  0  0  0
 32 33  2  0  0  0  0
 32 34  1  0  0  0  0
 34 35  2  0  0  0  0
 34 45  1  0  0  0  0
 35 36  1  0  0  0  0
 35 74  1  0  0  0  0
 36 37  1  0  0  0  0
 36 39  2  0  0  0  0
 37 38  1  0  0  0  0
 38 75  1  0  0  0  0
 38 76  1  0  0  0  0
 38 77  1  0  0  0  0
 39 40  1  0  0  0  0
 39 42  1  0  0  0  0
 40 41  1  0  0  0  0
 41 78  1  0  0  0  0
 41 79  1  0  0  0  0
 41 80  1  0  0  0  0
 42 43  1  0  0  0  0
 42 45  2  0  0  0  0
 43 44  1  0  0  0  0
 44 81  1  0  0  0  0
 44 82  1  0  0  0  0
 44 83  1  0  0  0  0
 45 84  1  0  0  0  0
M  END
$$$$

 OpenBabel12201709243D

176 182  0  0  1  0  0  0  0  0999 V2000
   11.4078   -2.7627    3.9621 C   0  0  0  0  0  0  0  0  0  0  0  0
   11.1879   -1.5896    3.0173 C   0  0  0  0  0  0  0  0  0  0  0  0
   10.9509   -2.1153    1.5907 C   0  0  0  0  0  0  0  0  0  0  0  0
   10.0300   -0.6500    3.4066 C   0  0  3  0  0  0  0  0  0  0  0  0
    8.7441   -1.2829    3.5874 N   0  0  0  0  0  0  0  0  0  0  0  0
    7.6677   -0.4593    3.3111 C   0  0  0  0  0  0  0  0  0  0  0  0
    7.8535    0.6863    2.9064 O   0  0  0  0  0  0  0  0  0  0  0  0
    6.2714   -0.9731    3.6407 C   0  0  3  0  0  0  0  0  0  0  0  0
    6.1193   -2.3891    3.2730 N   0  0  0  0  0  0  0  0  0  0  0  0
    6.0413   -3.3919    4.2304 C   0  0  0  0  0  0  0  0  0  0  0  0
    6.1010   -3.1041    5.4157 O   0  0  0  0  0  0  0  0  0  0  0  0
    5.9428   -4.8214    3.7456 C   0  0  0  0  0  0  0  0  0  0  0  0
    6.1944   -5.1143    2.3848 C   0  0  0  0  0  0  0  0  0  0  0  0
    6.1789   -6.4263    1.9051 C   0  0  0  0  0  0  0  0  0  0  0  0
    5.9257   -7.4836    2.7653 C   0  0  0  0  0  0  0  0  0  0  0  0
    5.9604   -8.8924    2.2438 C   0  0  0  0  0  0  0  0  0  0  0  0
    5.6528   -7.1979    4.1199 C   0  0  0  0  0  0  0  0  0  0  0  0
    5.3843   -8.2846    4.9190 O   0  0  0  0  0  0  0  0  0  0  0  0
    5.1035   -8.0676    6.2613 C   0  0  0  0  0  0  0  0  0  0  0  0
    4.8816   -9.1282    7.0473 C   0  0  0  0  0  0  0  0  0  0  0  0
    4.9276  -10.5531    6.5807 C   0  0  0  0  0  0  0  0  0  0  0  0
    4.5898   -8.9279    8.4717 C   0  0  0  0  0  0  0  0  0  0  0  0
    4.4036   -9.8862    9.2223 O   0  0  0  0  0  0  0  0  0  0  0  0
    4.5055   -7.5380    9.0396 C   0  0  0  0  0  0  0  0  0  0  0  0
    4.1576   -7.5339   10.4115 N   0  0  0  0  0  0  0  0  0  0  0  0
    4.7183   -6.4639    8.2465 C   0  0  0  0  0  0  0  0  0  0  0  0
    4.5505   -5.0515    8.7861 C   0  0  0  0  0  0  0  0  0  0  0  0
    4.2629   -4.1054    8.0646 O   0  0  0  0  0  0  0  0  0  0  0  0
    4.7204   -4.8629   10.1375 N   0  0  0  0  0  0  0  0  0  0  0  0
    4.7299   -3.5517   10.7861 C   0  0  3  0  0  0  0  0  0  0  0  0
    3.4461   -3.3650   11.7206 C   0  0  3  0  0  0  0  0  0  0  0  0
    3.6787   -3.7290   13.1951 C   0  0  0  0  0  0  0  0  0  0  0  0
    2.9000   -1.9956   11.5926 O   0  0  0  0  0  0  0  0  0  0  0  0
    1.6551   -1.7233   12.1033 C   0  0  0  0  0  0  0  0  0  0  0  0
    1.0124   -2.5022   12.8020 O   0  0  0  0  0  0  0  0  0  0  0  0
    1.1090   -0.3017   11.7365 C   0  0  3  0  0  0  0  0  0  0  0  0
    1.3008   -0.0068   10.2185 C   0  0  0  0  0  0  0  0  0  0  0  0
    0.7199   -1.1181    9.3196 C   0  0  0  0  0  0  0  0  0  0  0  0
    0.6325    1.3020    9.7606 C   0  0  0  0  0  0  0  0  0  0  0  0
    1.5094    0.7589   12.7487 N   0  0  0  0  0  0  0  0  0  0  0  0
    0.8860    0.6683   14.0619 C   0  0  0  0  0  0  0  0  0  0  0  0
    2.4204    1.7791   12.4663 C   0  0  0  0  0  0  0  0  0  0  0  0
    2.7671    2.0212   11.3049 O   0  0  0  0  0  0  0  0  0  0  0  0
    3.1295    2.5889   13.6328 C   0  0  0  0  0  0  0  0  0  0  0  0
    4.4723    3.1624   13.2281 N   0  0  0  0  0  0  0  0  0  0  0  0
    4.4800    4.1081   12.1217 C   0  0  0  0  0  0  0  0  0  0  0  0
    5.6801    2.5204   13.6115 C   0  0  0  0  0  0  0  0  0  0  0  0
    6.0774    2.6233   14.7746 O   0  0  0  0  0  0  0  0  0  0  0  0
    6.4152    1.5422   12.5332 C   0  0  3  0  0  0  0  0  0  0  0  0
    5.2692    0.6958   12.0088 C   0  0  0  0  0  0  0  0  0  0  0  0
    5.2778   -0.5921   12.8073 C   0  0  0  0  0  0  0  0  0  0  0  0
    6.3826   -0.4001   13.8167 C   0  0  0  0  0  0  0  0  0  0  0  0
    7.2786    0.3953   13.0151 N   0  0  0  0  0  0  0  0  0  0  0  0
    8.0713   -0.3141   12.0293 C   0  0  0  0  0  0  0  0  0  0  0  0
    8.5686    0.3009   11.0727 O   0  0  0  0  0  0  0  0  0  0  0  0
    8.0412   -1.9521   12.0356 C   0  0  3  0  0  0  0  0  0  0  0  0
    7.0132   -2.5024   11.1023 N   0  0  0  0  0  0  0  0  0  0  0  0
    6.1072   -3.4760   11.5230 C   0  0  0  0  0  0  0  0  0  0  0  0
    6.3841   -4.2456   12.4465 O   0  0  0  0  0  0  0  0  0  0  0  0
    9.3695   -2.7215   11.8957 C   0  0  0  0  0  0  0  0  0  0  0  0
   10.0932   -2.5088   10.5757 C   0  0  0  0  0  0  0  0  0  0  0  0
   10.2829   -2.4648   13.0966 C   0  0  0  0  0  0  0  0  0  0  0  0
    5.0704   -6.6624    6.7874 C   0  0  0  0  0  0  0  0  0  0  0  0
    5.3403   -5.6714    5.9941 N   0  0  0  0  0  0  0  0  0  0  0  0
    5.6454   -5.8876    4.6318 C   0  0  0  0  0  0  0  0  0  0  0  0
    5.2259   -0.0833    2.9237 C   0  0  3  0  0  0  0  0  0  0  0  0
    5.4945    0.1858    1.4366 C   0  0  0  0  0  0  0  0  0  0  0  0
    4.8989    1.0594    3.7688 O   0  0  0  0  0  0  0  0  0  0  0  0
    5.3674    2.3334    3.6963 C   0  0  0  0  0  0  0  0  0  0  0  0
    6.0957    2.7934    2.8308 O   0  0  0  0  0  0  0  0  0  0  0  0
    4.8485    3.1414    4.9196 C   0  0  3  0  0  0  0  0  0  0  0  0
    3.2853    3.2066    4.9518 C   0  0  0  0  0  0  0  0  0  0  0  0
    2.5878    1.8512    5.1438 C   0  0  0  0  0  0  0  0  0  0  0  0
    2.7838    4.1282    6.0754 C   0  0  0  0  0  0  0  0  0  0  0  0
    5.4340    4.5139    5.0273 N   0  0  0  0  0  0  0  0  0  0  0  0
    5.1045    5.5426    4.0561 C   0  0  0  0  0  0  0  0  0  0  0  0
    6.5702    4.7822    5.7890 C   0  0  0  0  0  0  0  0  0  0  0  0
    6.5118    5.5807    6.7227 O   0  0  0  0  0  0  0  0  0  0  0  0
    7.8816    4.2176    5.2106 C   0  0  0  0  0  0  0  0  0  0  0  0
    9.1551    4.3527    5.9202 N   0  0  0  0  0  0  0  0  0  0  0  0
    9.2156    4.3377    7.3721 C   0  0  0  0  0  0  0  0  0  0  0  0
   10.2573    3.9868    5.1514 C   0  0  0  0  0  0  0  0  0  0  0  0
   10.5592    4.6591    4.1601 O   0  0  0  0  0  0  0  0  0  0  0  0
   10.9342    2.6019    5.4437 C   0  0  3  0  0  0  0  0  0  0  0  0
   12.4689    2.7661    5.3483 C   0  0  0  0  0  0  0  0  0  0  0  0
   12.8900    1.8966    4.1617 C   0  0  0  0  0  0  0  0  0  0  0  0
   11.6312    1.8676    3.3089 C   0  0  0  0  0  0  0  0  0  0  0  0
   10.6509    1.6366    4.3490 N   0  0  0  0  0  0  0  0  0  0  0  0
   10.2661    0.3150    4.6411 C   0  0  0  0  0  0  0  0  0  0  0  0
   10.0266   -0.0674    5.7898 O   0  0  0  0  0  0  0  0  0  0  0  0
   12.2639   -3.3566    3.6190 H   0  0  0  0  0  0  0  0  0  0  0  0
   10.5410   -3.4297    3.9940 H   0  0  0  0  0  0  0  0  0  0  0  0
   11.6297   -2.4207    4.9761 H   0  0  0  0  0  0  0  0  0  0  0  0
   12.1221   -1.0143    2.9990 H   0  0  0  0  0  0  0  0  0  0  0  0
   10.0792   -2.7778    1.5467 H   0  0  0  0  0  0  0  0  0  0  0  0
   11.8194   -2.6773    1.2332 H   0  0  0  0  0  0  0  0  0  0  0  0
   10.7822   -1.2925    0.8863 H   0  0  0  0  0  0  0  0  0  0  0  0
    9.9305    0.0321    2.5361 H   0  0  0  0  0  0  0  0  0  0  0  0
    8.6225   -1.8980    4.3877 H   0  0  0  0  0  0  0  0  0  0  0  0
    6.1547   -0.8629    4.7241 H   0  0  0  0  0  0  0  0  0  0  0  0
    6.1559   -2.5975    2.2904 H   0  0  0  0  0  0  0  0  0  0  0  0
    6.4333   -4.3478    1.6576 H   0  0  0  0  0  0  0  0  0  0  0  0
    6.3913   -6.6058    0.8509 H   0  0  0  0  0  0  0  0  0  0  0  0
    6.1970   -8.9150    1.1735 H   0  0  0  0  0  0  0  0  0  0  0  0
    4.9887   -9.3776    2.3759 H   0  0  0  0  0  0  0  0  0  0  0  0
    6.7333   -9.4717    2.7597 H   0  0  0  0  0  0  0  0  0  0  0  0
    5.1798  -10.6512    5.5176 H   0  0  0  0  0  0  0  0  0  0  0  0
    3.9573  -11.0385    6.7281 H   0  0  0  0  0  0  0  0  0  0  0  0
    5.6835  -11.1168    7.1391 H   0  0  0  0  0  0  0  0  0  0  0  0
    3.7363   -8.4602   10.6047 H   0  0  0  0  0  0  0  0  0  0  0  0
    5.0138   -7.5995   10.9683 H   0  0  0  0  0  0  0  0  0  0  0  0
    4.7993   -5.6752   10.7350 H   0  0  0  0  0  0  0  0  0  0  0  0
    4.7015   -2.7611   10.0185 H   0  0  0  0  0  0  0  0  0  0  0  0
    2.6604   -4.0275   11.3316 H   0  0  0  0  0  0  0  0  0  0  0  0
    4.3896   -3.0525   13.6746 H   0  0  0  0  0  0  0  0  0  0  0  0
    4.0391   -4.7567   13.3007 H   0  0  0  0  0  0  0  0  0  0  0  0
    2.7655   -3.6557   13.7906 H   0  0  0  0  0  0  0  0  0  0  0  0
    0.0181   -0.3896   11.8607 H   0  0  0  0  0  0  0  0  0  0  0  0
    2.3780    0.0346   10.0136 H   0  0  0  0  0  0  0  0  0  0  0  0
   -0.3730   -1.0527    9.2626 H   0  0  0  0  0  0  0  0  0  0  0  0
    0.9712   -2.1268    9.6558 H   0  0  0  0  0  0  0  0  0  0  0  0
    1.1090   -1.0086    8.3007 H   0  0  0  0  0  0  0  0  0  0  0  0
   -0.4489    1.1859    9.6506 H   0  0  0  0  0  0  0  0  0  0  0  0
    1.0489    1.6027    8.7928 H   0  0  0  0  0  0  0  0  0  0  0  0
    0.7628    2.1409   10.4441 H   0  0  0  0  0  0  0  0  0  0  0  0
    0.0540   -0.0428   14.0545 H   0  0  0  0  0  0  0  0  0  0  0  0
    0.4962    1.6545   14.3330 H   0  0  0  0  0  0  0  0  0  0  0  0
    1.6240    0.3541   14.8036 H   0  0  0  0  0  0  0  0  0  0  0  0
    3.2957    1.9347   14.4933 H   0  0  0  0  0  0  0  0  0  0  0  0
    2.4749    3.4202   13.9131 H   0  0  0  0  0  0  0  0  0  0  0  0
    3.4587    4.3529   11.8109 H   0  0  0  0  0  0  0  0  0  0  0  0
    5.0464    3.7105   11.2775 H   0  0  0  0  0  0  0  0  0  0  0  0
    4.9538    5.0321   12.4657 H   0  0  0  0  0  0  0  0  0  0  0  0
    6.9156    2.1432   11.7684 H   0  0  0  0  0  0  0  0  0  0  0  0
    5.2322    0.6017   10.9222 H   0  0  0  0  0  0  0  0  0  0  0  0
    4.3470    1.0776   12.3212 H   0  0  0  0  0  0  0  0  0  0  0  0
    5.4748   -1.3259   12.0553 H   0  0  0  0  0  0  0  0  0  0  0  0
    4.3307   -0.8506   13.2704 H   0  0  0  0  0  0  0  0  0  0  0  0
    6.8164   -1.2943   14.2467 H   0  0  0  0  0  0  0  0  0  0  0  0
    6.0277    0.1884   14.6652 H   0  0  0  0  0  0  0  0  0  0  0  0
    7.7106   -2.2666   13.0195 H   0  0  0  0  0  0  0  0  0  0  0  0
    6.8656   -2.0169   10.2217 H   0  0  0  0  0  0  0  0  0  0  0  0
    9.1224   -3.7937   11.9356 H   0  0  0  0  0  0  0  0  0  0  0  0
   10.4414   -1.4801   10.4635 H   0  0  0  0  0  0  0  0  0  0  0  0
    9.4431   -2.7562    9.7305 H   0  0  0  0  0  0  0  0  0  0  0  0
   10.9665   -3.1692   10.5167 H   0  0  0  0  0  0  0  0  0  0  0  0
   10.5779   -1.4144   13.1640 H   0  0  0  0  0  0  0  0  0  0  0  0
   11.1889   -3.0770   13.0340 H   0  0  0  0  0  0  0  0  0  0  0  0
    9.7755   -2.7368   14.0305 H   0  0  0  0  0  0  0  0  0  0  0  0
    4.2936   -0.6634    2.9353 H   0  0  0  0  0  0  0  0  0  0  0  0
    6.0608    1.0974    1.2426 H   0  0  0  0  0  0  0  0  0  0  0  0
    4.5494    0.2895    0.8952 H   0  0  0  0  0  0  0  0  0  0  0  0
    6.0394   -0.6464    0.9744 H   0  0  0  0  0  0  0  0  0  0  0  0
    5.2088    2.6018    5.8074 H   0  0  0  0  0  0  0  0  0  0  0  0
    2.9345    3.6087    3.9929 H   0  0  0  0  0  0  0  0  0  0  0  0
    2.9713    1.3255    6.0240 H   0  0  0  0  0  0  0  0  0  0  0  0
    2.6888    1.2026    4.2710 H   0  0  0  0  0  0  0  0  0  0  0  0
    1.5088    1.9903    5.2751 H   0  0  0  0  0  0  0  0  0  0  0  0
    3.1178    3.7671    7.0538 H   0  0  0  0  0  0  0  0  0  0  0  0
    1.6895    4.1677    6.0806 H   0  0  0  0  0  0  0  0  0  0  0  0
    3.1317    5.1575    5.9564 H   0  0  0  0  0  0  0  0  0  0  0  0
    4.0597    5.4847    3.7509 H   0  0  0  0  0  0  0  0  0  0  0  0
    5.7573    5.4458    3.1854 H   0  0  0  0  0  0  0  0  0  0  0  0
    5.2791    6.5270    4.5058 H   0  0  0  0  0  0  0  0  0  0  0  0
    8.0115    4.7116    4.2372 H   0  0  0  0  0  0  0  0  0  0  0  0
    7.7503    3.1495    5.0176 H   0  0  0  0  0  0  0  0  0  0  0  0
    8.2839    4.6591    7.8346 H   0  0  0  0  0  0  0  0  0  0  0  0
    9.9955    5.0482    7.6734 H   0  0  0  0  0  0  0  0  0  0  0  0
    9.4820    3.3519    7.7497 H   0  0  0  0  0  0  0  0  0  0  0  0
   10.6222    2.2041    6.4099 H   0  0  0  0  0  0  0  0  0  0  0  0
   12.9599    2.4350    6.2678 H   0  0  0  0  0  0  0  0  0  0  0  0
   12.7632    3.8050    5.1694 H   0  0  0  0  0  0  0  0  0  0  0  0
   13.1018    0.8813    4.5147 H   0  0  0  0  0  0  0  0  0  0  0  0
   13.7632    2.2638    3.6183 H   0  0  0  0  0  0  0  0  0  0  0  0
   11.6625    1.1110    2.5302 H   0  0  0  0  0  0  0  0  0  0  0  0
   11.4293    2.8294    2.8302 H   0  0  0  0  0  0  0  0  0  0  0  0
  1  2  1  0  0  0  0
  1 91  1  0  0  0  0
  1 92  1  0  0  0  0
  1 93  1  0  0  0  0
  2  3  1  0  0  0  0
  2  4  1  0  0  0  0
  2 94  1  0  0  0  0
  3 95  1  0  0  0  0
  3 96  1  0  0  0  0
  3 97  1  0  0  0  0
  4  5  1  0  0  0  0
  4 89  1  0  0  0  0
  4 98  1  0  0  0  0
  5  6  1  0  0  0  0
  5 99  1  0  0  0  0
  6  7  2  0  0  0  0
  6  8  1  0  0  0  0
  8  9  1  0  0  0  0
  8 66  1  0  0  0  0
  8 100  1  0  0  0  0
  9 10  1  0  0  0  0
  9 101  1  0  0  0  0
 10 11  2  0  0  0  0
 10 12  1  0  0  0  0
 12 13  2  0  0  0  0
 12 65  1  0  0  0  0
 13 14  1  0  0  0  0
 13 102  1  0  0  0  0
 14 15  2  0  0  0  0
 14 103  1  0  0  0  0
 15 16  1  0  0  0  0
 15 17  1  0  0  0  0
 16 104  1  0  0  0  0
 16 105  1  0  0  0  0
 16 106  1  0  0  0  0
 17 18  1  0  0  0  0
 17 65  2  0  0  0  0
 18 19  1  0  0  0  0
 19 20  2  0  0  0  0
 19 63  1  0  0  0  0
 20 21  1  0  0  0  0
 20 22  1  0  0  0  0
 21 107  1  0  0  0  0
 21 108  1  0  0  0  0
 21 109  1  0  0  0  0
 22 23  2  0  0  0  0
 22 24  1  0  0  0  0
 24 25  1  0  0  0  0
 24 26  2  0  0  0  0
 25 110  1  0  0  0  0
 25 111  1  0  0  0  0
 26 27  1  0  0  0  0
 26 63  1  0  0  0  0
 27 28  2  0  0  0  0
 27 29  1  0  0  0  0
 29 30  1  0  0  0  0
 29 112  1  0  0  0  0
 30 31  1  0  0  0  0
 30 58  1  0  0  0  0
 30 113  1  0  0  0  0
 31 32  1  0  0  0  0
 31 33  1  0  0  0  0
 31 114  1  0  0  0  0
 32 115  1  0  0  0  0
 32 116  1  0  0  0  0
 32 117  1  0  0  0  0
 33 34  1  0  0  0  0
 34 35  2  0  0  0  0
 34 36  1  0  0  0  0
 36 37  1  0  0  0  0
 36 40  1  0  0  0  0
 36 118  1  0  0  0  0
 37 38  1  0  0  0  0
 37 39  1  0  0  0  0
 37 119  1  0  0  0  0
 38 120  1  0  0  0  0
 38 121  1  0  0  0  0
 38 122  1  0  0  0  0
 39 123  1  0  0  0  0
 39 124  1  0  0  0  0
 39 125  1  0  0  0  0
 40 41  1  0  0  0  0
 40 42  1  0  0  0  0
 41 126  1  0  0  0  0
 41 127  1  0  0  0  0
 41 128  1  0  0  0  0
 42 43  2  0  0  0  0
 42 44  1  0  0  0  0
 44 45  1  0  0  0  0
 44 129  1  0  0  0  0
 44 130  1  0  0  0  0
 45 46  1  0  0  0  0
 45 47  1  0  0  0  0
 46 131  1  0  0  0  0
 46 132  1  0  0  0  0
 46 133  1  0  0  0  0
 47 48  2  0  0  0  0
 47 49  1  0  0  0  0
 49 50  1  0  0  0  0
 49 53  1  0  0  0  0
 49 134  1  0  0  0  0
 50 51  1  0  0  0  0
 50 135  1  0  0  0  0
 50 136  1  0  0  0  0
 51 52  1  0  0  0  0
 51 137  1  0  0  0  0
 51 138  1  0  0  0  0
 52 53  1  0  0  0  0
 52 139  1  0  0  0  0
 52 140  1  0  0  0  0
 53 54  1  0  0  0  0
 54 55  2  0  0  0  0
 54 56  1  0  0  0  0
 56 57  1  0  0  0  0
 56 60  1  0  0  0  0
 56 141  1  0  0  0  0
 57 58  1  0  0  0  0
 57 142  1  0  0  0  0
 58 59  2  0  0  0  0
 60 61  1  0  0  0  0
 60 62  1  0  0  0  0
 60 143  1  0  0  0  0
 61 144  1  0  0  0  0
 61 145  1  0  0  0  0
 61 146  1  0  0  0  0
 62 147  1  0  0  0  0
 62 148  1  0  0  0  0
 62 149  1  0  0  0  0
 63 64  2  0  0  0  0
 64 65  1  0  0  0  0
 66 67  1  0  0  0  0
 66 68  1  0  0  0  0
 66 150  1  0  0  0  0
 67 151  1  0  0  0  0
 67 152  1  0  0  0  0
 67 153  1  0  0  0  0
 68 69  1  0  0  0  0
 69 70  2  0  0  0  0
 69 71  1  0  0  0  0
 71 72  1  0  0  0  0
 71 75  1  0  0  0  0
 71 154  1  0  0  0  0
 72 73  1  0  0  0  0
 72 74  1  0  0  0  0
 72 155  1  0  0  0  0
 73 156  1  0  0  0  0
 73 157  1  0  0  0  0
 73 158  1  0  0  0  0
 74 159  1  0  0  0  0
 74 160  1  0  0  0  0
 74 161  1  0  0  0  0
 75 76  1  0  0  0  0
 75 77  1  0  0  0  0
 76 162  1  0  0  0  0
 76 163  1  0  0  0  0
 76 164  1  0  0  0  0
 77 78  2  0  0  0  0
 77 79  1  0  0  0  0
 79 80  1  0  0  0  0
 79 165  1  0  0  0  0
 79 166  1  0  0  0  0
 80 81  1  0  0  0  0
 80 82  1  0  0  0  0
 81 167  1  0  0  0  0
 81 168  1  0  0  0  0
 81 169  1  0  0  0  0
 82 83  2  0  0  0  0
 82 84  1  0  0  0  0
 84 85  1  0  0  0  0
 84 88  1  0  0  0  0
 84 170  1  0  0  0  0
 85 86  1  0  0  0  0
 85 171  1  0  0  0  0
 85 172  1  0  0  0  0
 86 87  1  0  0  0  0
 86 173  1  0  0  0  0
 86 174  1  0  0  0  0
 87 88  1  0  0  0  0
 87 175  1  0  0  0  0
 87 176  1  0  0  0  0
 88 89  1  0  0  0  0
 89 90  2  0  0  0  0
M  END
$$$$

 OpenBabel12201709243D

 21 21  0  0  0  0  0  0  0  0999 V2000
    0.9508    0.1280    0.2813 C   0  0  0  0  0  0  0  0  0  0  0  0
    2.4208    0.1748   -0.0097 C   0  0  0  0  0  0  0  0  0  0  0  0
    2.8919    0.5209   -1.0828 O   0  0  0  0  0  0  0  0  0  0  0  0
    3.1312   -0.2691    1.1146 O   0  0  0  0  0  0  0  0  0  0  0  0
    4.5455   -0.3495    1.0883 C   0  0  0  0  0  0  0  0  0  0  0  0
    5.3098    0.6218    0.4323 C   0  0  0  0  0  0  0  0  0  0  0  0
    6.6997    0.5125    0.3976 C   0  0  0  0  0  0  0  0  0  0  0  0
    7.3353   -0.5443    1.0439 C   0  0  0  0  0  0  0  0  0  0  0  0
    6.5799   -1.4900    1.7386 C   0  0  0  0  0  0  0  0  0  0  0  0
    5.1791   -1.3961    1.7784 C   0  0  0  0  0  0  0  0  0  0  0  0
    4.4646   -2.4497    2.5482 C   0  0  0  0  0  0  0  0  0  0  0  0
    4.9174   -3.5684    2.7105 O   0  0  0  0  0  0  0  0  0  0  0  0
    3.3119   -2.0406    3.1183 O   0  0  0  0  0  0  0  0  0  0  0  0
    0.4184    0.7088   -0.4785 H   0  0  0  0  0  0  0  0  0  0  0  0
    0.7412    0.5777    1.2550 H   0  0  0  0  0  0  0  0  0  0  0  0
    0.6033   -0.9069    0.2499 H   0  0  0  0  0  0  0  0  0  0  0  0
    4.8448    1.4627   -0.0750 H   0  0  0  0  0  0  0  0  0  0  0  0
    7.2859    1.2509   -0.1452 H   0  0  0  0  0  0  0  0  0  0  0  0
    8.4188   -0.6319    1.0087 H   0  0  0  0  0  0  0  0  0  0  0  0
    7.0895   -2.3054    2.2518 H   0  0  0  0  0  0  0  0  0  0  0  0
    3.0984   -1.1034    2.9572 H   0  0  0  0  0  0  0  0  0  0  0  0
  1  2  1  0  0  0  0
  1 14  1  0  0  0  0
  1 15  1  0  0  0  0
  1 16  1  0  0  0  0
  2  3  2  0  0  0  0
  2  4  1  0  0  0  0
  4  5  1  0  0  0  0
  5  6  2  0  0  0  0
  5 10  1  0  0  0  0
  6  7  1  0  0  0  0
  6 17  1  0  0  0  0
  7  8  2  0  0  0  0
  7 18  1  0  0  0  0
  8  9  1  0  0  0  0
  8 19  1  0  0  0  0
  9 10  2  0  0  0  0
  9 20  1  0  0  0  0
 10 11  1  0  0  0  0
 11 12  2  0  0  0  0
 11 13  1  0  0  0  0
 13 21  1  0  0  0  0
M  END
$$$$

 OpenBabel12201709243D

 20 20  0  0  1  0  0  0  0  0999 V2000
    2.8977    0.1024   -2.4426 O   0  0  0  0  0  0  0  0  0  0  0  0
    2.3683    0.2215   -1.1317 C   0  0  0  0  0  0  0  0  0  0  0  0
    2.9193    1.4601   -0.4122 C   0  0  3  0  0  0  0  0  0  0  0  0
    2.3060    1.5249    0.8893 O   0  0  0  0  0  0  0  0  0  0  0  0
    4.4583    1.4202   -0.3003 C   0  0  3  0  0  0  0  0  0  0  0  0
    4.8307    0.2782    0.5073 O   0  0  0  0  0  0  0  0  0  0  0  0
    5.4349    0.7099    1.6483 C   0  0  0  0  0  0  0  0  0  0  0  0
    5.7970    0.0169    2.5817 O   0  0  0  0  0  0  0  0  0  0  0  0
    5.5852    2.1667    1.5948 C   0  0  0  0  0  0  0  0  0  0  0  0
    5.0375    2.5642    0.4525 C   0  0  0  0  0  0  0  0  0  0  0  0
    4.9838    3.8485   -0.0137 O   0  0  0  0  0  0  0  0  0  0  0  0
    6.1683    2.9382    2.5565 O   0  0  0  0  0  0  0  0  0  0  0  0
    2.4742   -0.6756   -2.8479 H   0  0  0  0  0  0  0  0  0  0  0  0
    2.5991   -0.6913   -0.5703 H   0  0  0  0  0  0  0  0  0  0  0  0
    1.2764    0.2871   -1.1953 H   0  0  0  0  0  0  0  0  0  0  0  0
    2.6246    2.3599   -0.9647 H   0  0  0  0  0  0  0  0  0  0  0  0
    2.5400    0.7064    1.3635 H   0  0  0  0  0  0  0  0  0  0  0  0
    4.9351    1.3231   -1.2823 H   0  0  0  0  0  0  0  0  0  0  0  0
    5.3968    4.4116    0.6718 H   0  0  0  0  0  0  0  0  0  0  0  0
    6.4000    2.3186    3.2796 H   0  0  0  0  0  0  0  0  0  0  0  0
  1  2  1  0  0  0  0
  1 13  1  0  0  0  0
  2  3  1  0  0  0  0
  2 14  1  0  0  0  0
  2 15  1  0  0  0  0
  3  4  1  0  0  0  0
  3  5  1  0  0  0  0
  3 16  1  0  0  0  0
  4 17  1  0  0  0  0
  5  6  1  0  0  0  0
  5 10  1  0  0  0  0
  5 18  1  0  0  0  0
  6  7  1  0  0  0  0
  7  8  2  0  0  0  0
  7  9  1  0  0  0  0
  9 10  2  0  0  0  0
  9 12  1  0  0  0  0
 10 11  1  0  0  0  0
 11 19  1  0  0  0  0
 12 20  1  0  0  0  0
M  END
$$$$

 OpenBabel12201709243D

 32 33  0  0  0  0  0  0  0  0999 V2000
    2.7907    1.2362    0.0146 O   0  0  0  0  0  0  0  0  0  0  0  0
    2.4865   -0.1589    0.0237 C   0  0  0  0  0  0  0  0  0  0  0  0
    3.0232   -0.8495   -1.2330 C   0  0  0  0  0  0  0  0  0  0  0  0
    4.4741   -0.8639   -1.3348 N   0  0  0  0  0  0  0  0  0  0  0  0
    5.2715    0.3426   -1.3540 C   0  0  0  0  0  0  0  0  0  0  0  0
    6.5605   -0.1034   -2.0151 C   0  0  0  0  0  0  0  0  0  0  0  0
    6.5942   -1.5241   -1.7599 N   0  0  0  0  0  0  0  0  0  0  0  0
    7.7237   -2.2214   -2.0734 N   0  0  0  0  0  0  0  0  0  0  0  0
    7.7862   -3.4949   -1.8551 C   0  0  0  0  0  0  0  0  0  0  0  0
    9.0148   -4.1872   -2.1576 C   0  0  0  0  0  0  0  0  0  0  0  0
   10.2173   -3.7303   -2.6615 C   0  0  0  0  0  0  0  0  0  0  0  0
   11.0866   -4.8413   -2.7166 C   0  0  0  0  0  0  0  0  0  0  0  0
   10.3738   -5.9309   -2.2511 C   0  0  0  0  0  0  0  0  0  0  0  0
    9.1033   -5.5305   -1.9102 O   0  0  0  0  0  0  0  0  0  0  0  0
   10.8523   -7.2514   -2.1289 N   0  0  0  0  0  0  0  0  0  0  0  0
   11.9959   -7.5105   -2.4440 O   0  0  0  0  0  0  0  0  0  0  0  0
   10.0188   -8.2456   -1.6467 O   0  0  0  0  0  0  0  0  0  0  0  0
    5.2785   -2.0029   -1.5078 C   0  0  0  0  0  0  0  0  0  0  0  0
    4.8888   -3.1579   -1.4666 O   0  0  0  0  0  0  0  0  0  0  0  0
    2.4230    1.6093    0.8349 H   0  0  0  0  0  0  0  0  0  0  0  0
    1.3962   -0.2544    0.0535 H   0  0  0  0  0  0  0  0  0  0  0  0
    2.9083   -0.6037    0.9299 H   0  0  0  0  0  0  0  0  0  0  0  0
    2.6589   -0.3300   -2.1264 H   0  0  0  0  0  0  0  0  0  0  0  0
    2.6576   -1.8809   -1.2666 H   0  0  0  0  0  0  0  0  0  0  0  0
    5.4482    0.6461   -0.3158 H   0  0  0  0  0  0  0  0  0  0  0  0
    4.7771    1.1477   -1.9030 H   0  0  0  0  0  0  0  0  0  0  0  0
    7.4479    0.3985   -1.6205 H   0  0  0  0  0  0  0  0  0  0  0  0
    6.5057    0.0379   -3.1010 H   0  0  0  0  0  0  0  0  0  0  0  0
    6.9739   -4.0977   -1.4221 H   0  0  0  0  0  0  0  0  0  0  0  0
   10.4330   -2.7067   -2.9411 H   0  0  0  0  0  0  0  0  0  0  0  0
   12.1169   -4.8590   -3.0516 H   0  0  0  0  0  0  0  0  0  0  0  0
    9.2005   -7.7464   -1.4912 H   0  0  0  0  0  0  0  0  0  0  0  0
  1  2  1  0  0  0  0
  1 20  1  0  0  0  0
  2  3  1  0  0  0  0
  2 21  1  0  0  0  0
  2 22  1  0  0  0  0
  3  4  1  0  0  0  0
  3 23  1  0  0  0  0
  3 24  1  0  0  0  0
  4  5  1  0  0  0  0
  4 18  1  0  0  0  0
  5  6  1  0  0  0  0
  5 25  1  0  0  0  0
  5 26  1  0  0  0  0
  6  7  1  0  0  0  0
  6 27  1  0  0  0  0
  6 28  1  0  0  0  0
  7  8  1  0  0  0  0
  7 18  1  0  0  0  0
  8  9  2  3  0  0  0
  9 10  1  0  0  0  0
  9 29  1  0  0  0  0
 10 11  2  0  0  0  0
 10 14  1  0  0  0  0
 11 12  1  0  0  0  0
 11 30  1  0  0  0  0
 12 13  2  0  0  0  0
 12 31  1  0  0  0  0
 13 14  1  0  0  0  0
 13 15  1  0  0  0  0
 15 16  2  0  0  0  0
 15 17  1  0  0  0  0
 17 32  1  0  0  0  0
 18 19  2  0  0  0  0
M  END
$$$$

 OpenBabel12201709243D

 14 13  0  0  0  0  0  0  0  0999 V2000
    1.0227    0.1253    0.0196 O   0  0  0  0  0  0  0  0  0  0  0  0
    2.3660   -0.0008   -0.0509 C   0  0  0  0  0  0  0  0  0  0  0  0
    2.9101   -0.9510   -0.5908 O   0  0  0  0  0  0  0  0  0  0  0  0
    3.0902    1.1442    0.6012 C   0  0  0  0  0  0  0  0  0  0  0  0
    4.5941    0.9496    0.4904 C   0  0  0  0  0  0  0  0  0  0  0  0
    5.2919    2.0762    1.1330 N   0  0  0  0  0  0  0  0  0  0  0  0
    4.6723    2.9836    1.6519 O   0  0  0  0  0  0  0  0  0  0  0  0
    6.6790    2.1321    1.1636 O   0  0  0  0  0  0  0  0  0  0  0  0
    0.7232    0.9340    0.4794 H   0  0  0  0  0  0  0  0  0  0  0  0
    2.7872    1.1876    1.6536 H   0  0  0  0  0  0  0  0  0  0  0  0
    2.7874    2.0715    0.1015 H   0  0  0  0  0  0  0  0  0  0  0  0
    4.9237    0.9207   -0.5532 H   0  0  0  0  0  0  0  0  0  0  0  0
    4.9237    0.0366    0.9968 H   0  0  0  0  0  0  0  0  0  0  0  0
    6.9334    1.3207    0.7002 H   0  0  0  0  0  0  0  0  0  0  0  0
  1  2  1  0  0  0  0
  1  9  1  0  0  0  0
  2  3  2  0  0  0  0
  2  4  1  0  0  0  0
  4  5  1  0  0  0  0
  4 10  1  0  0  0  0
  4 11  1  0  0  0  0
  5  6  1  0  0  0  0
  5 12  1  0  0  0  0
  5 13  1  0  0  0  0
  6  7  2  0  0  0  0
  6  8  1  0  0  0  0
  8 14  1  0  0  0  0
M  END
$$$$

 OpenBabel12201709243D

 17 16  0  0  0  0  0  0  0  0999 V2000
    2.7333    1.1278   -0.6035 O   0  0  0  0  0  0  0  0  0  0  0  0
    2.3150   -0.0377    0.0087 N   0  0  0  0  0  0  0  0  0  0  0  0
    1.2400   -0.4636   -0.3651 O   0  0  0  0  0  0  0  0  0  0  0  0
    3.0452   -0.6710    1.1198 C   0  0  0  0  0  0  0  0  0  0  0  0
    2.6450    0.0163    2.3664 N   0  0  0  0  0  0  0  0  0  0  0  0
    1.7022   -0.4180    3.0074 O   0  0  0  0  0  0  0  0  0  0  0  0
    3.2555    1.1733    2.8572 O   0  0  0  0  0  0  0  0  0  0  0  0
    2.6973   -2.1148    1.1582 N   0  0  0  0  0  0  0  0  0  0  0  0
    3.3453   -2.8800    0.4620 O   0  0  0  0  0  0  0  0  0  0  0  0
    1.7091   -2.6902    1.9569 O   0  0  0  0  0  0  0  0  0  0  0  0
    4.5099   -0.5071    0.9427 N   0  0  0  0  0  0  0  0  0  0  0  0
    4.9850    0.6094    1.0757 O   0  0  0  0  0  0  0  0  0  0  0  0
    5.4260   -1.5483    0.7743 O   0  0  0  0  0  0  0  0  0  0  0  0
    1.9861    1.2534   -1.2195 H   0  0  0  0  0  0  0  0  0  0  0  0
    4.0028    1.3284    2.2386 H   0  0  0  0  0  0  0  0  0  0  0  0
    1.3436   -1.9314    2.4559 H   0  0  0  0  0  0  0  0  0  0  0  0
    4.8634   -2.3373    0.6240 H   0  0  0  0  0  0  0  0  0  0  0  0
  1  2  1  0  0  0  0
  1 14  1  0  0  0  0
  2  3  2  0  0  0  0
  2  4  1  0  0  0  0
  4  5  1  0  0  0  0
  4  8  1  0  0  0  0
  4 11  1  0  0  0  0
  5  6  2  0  0  0  0
  5  7  1  0  0  0  0
  7 15  1  0  0  0  0
  8  9  2  0  0  0  0
  8 10  1  0  0  0  0
 10 16  1  0  0  0  0
 11 12  2  0  0  0  0
 11 13  1  0  0  0  0
 13 17  1  0  0  0  0
M  END
$$$$

 OpenBabel12201709243D

 36 37  0  0  1  0  0  0  0  0999 V2000
    0.9455   -0.0050   -0.1219 C   0  0  0  0  0  0  0  0  0  0  0  0
    2.4744   -0.0325   -0.1648 C   0  0  0  0  0  0  0  0  0  0  0  0
    2.9559    0.2554   -1.5882 C   0  0  0  0  0  0  0  0  0  0  0  0
    2.9814    0.9628    0.7897 N   0  0  0  0  0  0  0  0  0  0  0  0
    4.4468    0.9341    0.9192 C   0  0  0  0  0  0  0  0  0  0  0  0
    4.9359    1.8853    2.0373 C   0  0  3  0  0  0  0  0  0  0  0  0
    4.3947    1.4454    3.2903 O   0  0  0  0  0  0  0  0  0  0  0  0
    6.4527    1.9384    2.0841 C   0  0  0  0  0  0  0  0  0  0  0  0
    7.1231    3.1439    1.8406 C   0  0  0  0  0  0  0  0  0  0  0  0
    8.5204    3.1973    1.8534 C   0  0  0  0  0  0  0  0  0  0  0  0
    9.2817    2.0488    2.1185 C   0  0  0  0  0  0  0  0  0  0  0  0
   10.6852    2.0843    2.1523 C   0  0  0  0  0  0  0  0  0  0  0  0
   11.4225    0.9291    2.4221 C   0  0  0  0  0  0  0  0  0  0  0  0
   10.7677   -0.2754    2.6509 C   0  0  0  0  0  0  0  0  0  0  0  0
    9.3747   -0.3294    2.6156 C   0  0  0  0  0  0  0  0  0  0  0  0
    8.6187    0.8261    2.3585 C   0  0  0  0  0  0  0  0  0  0  0  0
    7.2159    0.7854    2.3360 C   0  0  0  0  0  0  0  0  0  0  0  0
    0.5260   -0.7257   -0.8328 H   0  0  0  0  0  0  0  0  0  0  0  0
    0.5540    0.9862   -0.3763 H   0  0  0  0  0  0  0  0  0  0  0  0
    0.5744   -0.2724    0.8735 H   0  0  0  0  0  0  0  0  0  0  0  0
    2.8018   -1.0363    0.1326 H   0  0  0  0  0  0  0  0  0  0  0  0
    2.7519    1.2926   -1.8765 H   0  0  0  0  0  0  0  0  0  0  0  0
    2.4547   -0.3995   -2.3092 H   0  0  0  0  0  0  0  0  0  0  0  0
    4.0301    0.0790   -1.6916 H   0  0  0  0  0  0  0  0  0  0  0  0
    2.5853    0.7978    1.7201 H   0  0  0  0  0  0  0  0  0  0  0  0
    4.9189    1.2333   -0.0227 H   0  0  0  0  0  0  0  0  0  0  0  0
    4.7552   -0.0924    1.1536 H   0  0  0  0  0  0  0  0  0  0  0  0
    4.5350    2.8900    1.8537 H   0  0  0  0  0  0  0  0  0  0  0  0
    5.0961    0.9866    3.7789 H   0  0  0  0  0  0  0  0  0  0  0  0
    6.5641    4.0541    1.6301 H   0  0  0  0  0  0  0  0  0  0  0  0
    9.0122    4.1473    1.6541 H   0  0  0  0  0  0  0  0  0  0  0  0
   11.2159    3.0165    1.9732 H   0  0  0  0  0  0  0  0  0  0  0  0
   12.5078    0.9728    2.4539 H   0  0  0  0  0  0  0  0  0  0  0  0
   11.3393   -1.1775    2.8579 H   0  0  0  0  0  0  0  0  0  0  0  0
    8.8819   -1.2795    2.7981 H   0  0  0  0  0  0  0  0  0  0  0  0
    6.7128   -0.1636    2.5122 H   0  0  0  0  0  0  0  0  0  0  0  0
  1  2  1  0  0  0  0
  1 18  1  0  0  0  0
  1 19  1  0  0  0  0
  1 20  1  0  0  0  0
  2  3  1  0  0  0  0
  2  4  1  0  0  0  0
  2 21  1  0  0  0  0
  3 22  1  0  0  0  0
  3 23  1  0  0  0  0
  3 24  1  0  0  0  0
  4  5  1  0  0  0  0
  4 25  1  0  0  0  0
  5  6  1  0  0  0  0
  5 26  1  0  0  0  0
  5 27  1  0  0  0  0
  6  7  1  0  0  0  0
  6  8  1  0  0  0  0
  6 28  1  0  0  0  0
  7 29  1  0  0  0  0
  8  9  2  0  0  0  0
  8 17  1  0  0  0  0
  9 10  1  0  0  0  0
  9 30  1  0  0  0  0
 10 11  2  0  0  0  0
 10 31  1  0  0  0  0
 11 12  1  0  0  0  0
 11 16  1  0  0  0  0
 12 13  2  0  0  0  0
 12 32  1  0  0  0  0
 13 14  1  0  0  0  0
 13 33  1  0  0  0  0
 14 15  2  0  0  0  0
 14 34  1  0  0  0  0
 15 16  1  0  0  0  0
 15 35  1  0  0  0  0
 16 17  2  0  0  0  0
 17 36  1  0  0  0  0
M  END
$$$$

 OpenBabel12201709243D

 54 55  0  0  0  0  0  0  0  0999 V2000
    0.9774   -0.5788    0.6562 C   0  0  0  0  0  0  0  0  0  0  0  0
    2.4926   -0.4861    0.5719 C   0  0  0  0  0  0  0  0  0  0  0  0
    3.0519   -1.4285   -0.4897 C   0  0  0  0  0  0  0  0  0  0  0  0
    4.5689   -1.3313   -0.5597 C   0  0  0  0  0  0  0  0  0  0  0  0
    5.0342   -2.2331   -1.5628 O   0  0  0  0  0  0  0  0  0  0  0  0
    6.4550   -2.1682   -1.6776 C   0  0  0  0  0  0  0  0  0  0  0  0
    6.9300   -3.1477   -2.7426 C   0  0  0  0  0  0  0  0  0  0  0  0
    8.3541   -3.0543   -2.8182 O   0  0  0  0  0  0  0  0  0  0  0  0
    8.8868   -3.9251   -3.8134 C   0  0  0  0  0  0  0  0  0  0  0  0
   10.3900   -3.7281   -3.8439 C   0  0  0  0  0  0  0  0  0  0  0  0
   10.9677   -4.5394   -4.8660 O   0  0  0  0  0  0  0  0  0  0  0  0
   12.3559   -4.2508   -4.9797 C   0  0  0  0  0  0  0  0  0  0  0  0
   13.0799   -5.3162   -5.7662 C   0  0  0  0  0  0  0  0  0  0  0  0
   12.9087   -6.6437   -5.3281 C   0  0  0  0  0  0  0  0  0  0  0  0
   13.8597   -7.5635   -5.6848 C   0  0  0  0  0  0  0  0  0  0  0  0
   13.9741   -8.8206   -5.1746 O   0  0  0  0  0  0  0  0  0  0  0  0
   15.3541   -9.0673   -5.4936 C   0  0  0  0  0  0  0  0  0  0  0  0
   15.8224   -8.2452   -6.5856 O   0  0  0  0  0  0  0  0  0  0  0  0
   14.9069   -7.2375   -6.5122 C   0  0  0  0  0  0  0  0  0  0  0  0
   15.0075   -5.9976   -7.1038 C   0  0  0  0  0  0  0  0  0  0  0  0
   14.0792   -5.0044   -6.7331 C   0  0  0  0  0  0  0  0  0  0  0  0
   14.1850   -3.6420   -7.3855 C   0  0  0  0  0  0  0  0  0  0  0  0
   15.0074   -2.5938   -6.6314 C   0  0  0  0  0  0  0  0  0  0  0  0
   16.4887   -2.9255   -6.5381 C   0  0  0  0  0  0  0  0  0  0  0  0
    0.6043    0.1073    1.4228 H   0  0  0  0  0  0  0  0  0  0  0  0
    0.6611   -1.5912    0.9231 H   0  0  0  0  0  0  0  0  0  0  0  0
    0.5161   -0.3080   -0.2966 H   0  0  0  0  0  0  0  0  0  0  0  0
    2.9234   -0.7317    1.5507 H   0  0  0  0  0  0  0  0  0  0  0  0
    2.7777    0.5446    0.3439 H   0  0  0  0  0  0  0  0  0  0  0  0
    2.6265   -1.1949   -1.4740 H   0  0  0  0  0  0  0  0  0  0  0  0
    2.7630   -2.4658   -0.2707 H   0  0  0  0  0  0  0  0  0  0  0  0
    5.0138   -1.6006    0.4055 H   0  0  0  0  0  0  0  0  0  0  0  0
    4.8701   -0.3103   -0.8212 H   0  0  0  0  0  0  0  0  0  0  0  0
    6.9205   -2.4152   -0.7154 H   0  0  0  0  0  0  0  0  0  0  0  0
    6.7634   -1.1516   -1.9437 H   0  0  0  0  0  0  0  0  0  0  0  0
    6.4811   -2.8965   -3.7082 H   0  0  0  0  0  0  0  0  0  0  0  0
    6.6198   -4.1660   -2.4814 H   0  0  0  0  0  0  0  0  0  0  0  0
    8.4574   -3.6895   -4.7930 H   0  0  0  0  0  0  0  0  0  0  0  0
    8.6457   -4.9667   -3.5749 H   0  0  0  0  0  0  0  0  0  0  0  0
   10.8166   -3.9972   -2.8691 H   0  0  0  0  0  0  0  0  0  0  0  0
   10.6205   -2.6712   -4.0227 H   0  0  0  0  0  0  0  0  0  0  0  0
   12.8176   -4.2433   -3.9802 H   0  0  0  0  0  0  0  0  0  0  0  0
   12.4736   -3.2531   -5.4054 H   0  0  0  0  0  0  0  0  0  0  0  0
   12.1228   -6.9120   -4.6294 H   0  0  0  0  0  0  0  0  0  0  0  0
   15.4958  -10.1228   -5.7402 H   0  0  0  0  0  0  0  0  0  0  0  0
   15.9546   -8.8363   -4.5983 H   0  0  0  0  0  0  0  0  0  0  0  0
   15.8265   -5.7832   -7.7831 H   0  0  0  0  0  0  0  0  0  0  0  0
   13.1672   -3.2498   -7.5536 H   0  0  0  0  0  0  0  0  0  0  0  0
   14.5850   -3.7600   -8.4015 H   0  0  0  0  0  0  0  0  0  0  0  0
   14.6110   -2.4386   -5.6254 H   0  0  0  0  0  0  0  0  0  0  0  0
   14.9058   -1.6380   -7.1629 H   0  0  0  0  0  0  0  0  0  0  0  0
   16.6615   -3.8395   -5.9660 H   0  0  0  0  0  0  0  0  0  0  0  0
   17.0193   -2.1141   -6.0278 H   0  0  0  0  0  0  0  0  0  0  0  0
   16.9308   -3.0446   -7.5326 H   0  0  0  0  0  0  0  0  0  0  0  0
  1  2  1  0  0  0  0
  1 25  1  0  0  0  0
  1 26  1  0  0  0  0
  1 27  1  0  0  0  0
  2  3  1  0  0  0  0
  2 28  1  0  0  0  0
  2 29  1  0  0  0  0
  3  4  1  0  0  0  0
  3 30  1  0  0  0  0
  3 31  1  0  0  0  0
  4  5  1  0  0  0  0
  4 32  1  0  0  0  0
  4 33  1  0  0  0  0
  5  6  1  0  0  0  0
  6  7  1  0  0  0  0
  6 34  1  0  0  0  0
  6 35  1  0  0  0  0
  7  8  1  0  0  0  0
  7 36  1  0  0  0  0
  7 37  1  0  0  0  0
  8  9  1  0  0  0  0
  9 10  1  0  0  0  0
  9 38  1  0  0  0  0
  9 39  1  0  0  0  0
 10 11  1  0  0  0  0
 10 40  1  0  0  0  0
 10 41  1  0  0  0  0
 11 12  1  0  0  0  0
 12 13  1  0  0  0  0
 12 42  1  0  0  0  0
 12 43  1  0  0  0  0
 13 14  2  0  0  0  0
 13 21  1  0  0  0  0
 14 15  1  0  0  0  0
 14 44  1  0  0  0  0
 15 16  1  0  0  0  0
 15 19  2  0  0  0  0
 16 17  1  0  0  0  0
 17 18  1  0  0  0  0
 17 45  1  0  0  0  0
 17 46  1  0  0  0  0
 18 19  1  0  0  0  0
 19 20  1  0  0  0  0
 20 21  2  0  0  0  0
 20 47  1  0  0  0  0
 21 22  1  0  0  0  0
 22 23  1  0  0  0  0
 22 48  1  0  0  0  0
 22 49  1  0  0  0  0
 23 24  1  0  0  0  0
 23 50  1  0  0  0  0
 23 51  1  0  0  0  0
 24 52  1  0  0  0  0
 24 53  1  0  0  0  0
 24 54  1  0  0  0  0
M  END
$$$$

 OpenBabel12201709243D

 12 12  0  0  0  0  0  0  0  0999 V2000
    1.1270   -0.1802   -0.0318 O   0  0  0  0  0  0  0  0  0  0  0  0
    2.4845   -0.1629   -0.0293 C   0  0  0  0  0  0  0  0  0  0  0  0
    3.0259    1.0632   -0.0306 N   0  0  0  0  0  0  0  0  0  0  0  0
    4.3764    1.0871   -0.0281 C   0  0  0  0  0  0  0  0  0  0  0  0
    5.1461   -0.0500   -0.0244 C   0  0  0  0  0  0  0  0  0  0  0  0
    6.4836   -0.0069   -0.0219 F   0  0  0  0  0  0  0  0  0  0  0  0
    4.4571   -1.2429   -0.0235 C   0  0  0  0  0  0  0  0  0  0  0  0
    5.1289   -2.4356   -0.0199 O   0  0  0  0  0  0  0  0  0  0  0  0
    3.1201   -1.3355   -0.0259 N   0  0  0  0  0  0  0  0  0  0  0  0
    0.9575    0.7753   -0.0337 H   0  0  0  0  0  0  0  0  0  0  0  0
    4.8343    2.0704   -0.0291 H   0  0  0  0  0  0  0  0  0  0  0  0
    6.0787   -2.2294   -0.0183 H   0  0  0  0  0  0  0  0  0  0  0  0
  1  2  1  0  0  0  0
  1 10  1  0  0  0  0
  2  3  2  0  0  0  0
  2  9  1  0  0  0  0
  3  4  1  0  0  0  0
  4  5  2  0  0  0  0
  4 11  1  0  0  0  0
  5  6  1  0  0  0  0
  5  7  1  0  0  0  0
  7  8  1  0  0  0  0
  7  9  2  0  0  0  0
  8 12  1  0  0  0  0
M  END
$$$$

 OpenBabel12201709243D

 19 19  0  0  0  0  0  0  0  0999 V2000
    0.9976   -0.0593    0.1121 O   0  0  0  0  0  0  0  0  0  0  0  0
    2.3580   -0.0607   -0.0269 C   0  0  0  0  0  0  0  0  0  0  0  0
    3.0465    1.1520   -0.0780 C   0  0  0  0  0  0  0  0  0  0  0  0
    4.4349    1.1560   -0.2254 C   0  0  0  0  0  0  0  0  0  0  0  0
    5.1344   -0.0532   -0.3197 C   0  0  0  0  0  0  0  0  0  0  0  0
    4.4470   -1.2696   -0.2484 C   0  0  0  0  0  0  0  0  0  0  0  0
    3.0477   -1.2744   -0.1114 C   0  0  0  0  0  0  0  0  0  0  0  0
    2.3555   -2.5561   -0.0620 N   0  0  0  0  0  0  0  0  0  0  0  0
    3.0130   -3.5732   -0.1788 O   0  0  0  0  0  0  0  0  0  0  0  0
    0.9828   -2.6684    0.0887 O   0  0  0  0  0  0  0  0  0  0  0  0
    6.5791   -0.0259   -0.4682 N   0  0  0  0  0  0  0  0  0  0  0  0
    7.1934    0.9206   -0.0199 O   0  0  0  0  0  0  0  0  0  0  0  0
    7.2665   -1.0184   -1.1459 O   0  0  0  0  0  0  0  0  0  0  0  0
    0.6867    0.8650    0.1643 H   0  0  0  0  0  0  0  0  0  0  0  0
    2.5263    2.1034   -0.0029 H   0  0  0  0  0  0  0  0  0  0  0  0
    4.9706    2.1044   -0.2604 H   0  0  0  0  0  0  0  0  0  0  0  0
    4.9835   -2.2170   -0.2729 H   0  0  0  0  0  0  0  0  0  0  0  0
    0.7101   -1.7368    0.1409 H   0  0  0  0  0  0  0  0  0  0  0  0
    6.5590   -1.5357   -1.5520 H   0  0  0  0  0  0  0  0  0  0  0  0
  1  2  1  0  0  0  0
  1 14  1  0  0  0  0
  2  3  2  0  0  0  0
  2  7  1  0  0  0  0
  3  4  1  0  0  0  0
  3 15  1  0  0  0  0
  4  5  2  0  0  0  0
  4 16  1  0  0  0  0
  5  6  1  0  0  0  0
  5 11  1  0  0  0  0
  6  7  2  0  0  0  0
  6 17  1  0  0  0  0
  7  8  1  0  0  0  0
  8  9  2  0  0  0  0
  8 10  1  0  0  0  0
 10 18  1  0  0  0  0
 11 12  2  0  0  0  0
 11 13  1  0  0  0  0
 13 19  1  0  0  0  0
M  END
$$$$

 OpenBabel12201709243D

 19 18  0  0  0  0  0  0  0  0999 V2000
    0.9579    0.0919   -0.0630 C   0  0  0  0  0  0  0  0  0  0  0  0
    2.4248    0.0096   -0.0076 N   0  0  0  0  0  0  0  0  0  0  0  0
    2.8418   -0.0117    1.4175 C   0  0  0  0  0  0  0  0  0  0  0  0
    4.3535    0.0974    1.6507 C   0  0  0  0  0  0  0  0  0  0  0  0
    4.7066    0.1846    3.3990 Cl  0  0  0  0  0  0  0  0  0  0  0  0
    2.9246   -1.1769   -0.7402 C   0  0  0  0  0  0  0  0  0  0  0  0
    2.6252   -1.1658   -2.2461 C   0  0  0  0  0  0  0  0  0  0  0  0
    3.3909   -2.5692   -3.0401 Cl  0  0  0  0  0  0  0  0  0  0  0  0
    0.5999    0.9727    0.4821 H   0  0  0  0  0  0  0  0  0  0  0  0
    0.4806   -0.7956    0.3673 H   0  0  0  0  0  0  0  0  0  0  0  0
    0.6024    0.2162   -1.0905 H   0  0  0  0  0  0  0  0  0  0  0  0
    2.4564   -0.9164    1.9090 H   0  0  0  0  0  0  0  0  0  0  0  0
    2.3754    0.8458    1.9209 H   0  0  0  0  0  0  0  0  0  0  0  0
    4.7614    0.9997    1.1858 H   0  0  0  0  0  0  0  0  0  0  0  0
    4.8929   -0.7724    1.2692 H   0  0  0  0  0  0  0  0  0  0  0  0
    2.5250   -2.0954   -0.2908 H   0  0  0  0  0  0  0  0  0  0  0  0
    4.0144   -1.2191   -0.6414 H   0  0  0  0  0  0  0  0  0  0  0  0
    3.0207   -0.2620   -2.7204 H   0  0  0  0  0  0  0  0  0  0  0  0
    1.5546   -1.2354   -2.4524 H   0  0  0  0  0  0  0  0  0  0  0  0
  1  2  1  0  0  0  0
  1  9  1  0  0  0  0
  1 10  1  0  0  0  0
  1 11  1  0  0  0  0
  2  3  1  0  0  0  0
  2  6  1  0  0  0  0
  3  4  1  0  0  0  0
  3 12  1  0  0  0  0
  3 13  1  0  0  0  0
  4  5  1  0  0  0  0
  4 14  1  0  0  0  0
  4 15  1  0  0  0  0
  6  7  1  0  0  0  0
  6 16  1  0  0  0  0
  6 17  1  0  0  0  0
  7  8  1  0  0  0  0
  7 18  1  0  0  0  0
  7 19  1  0  0  0  0
M  END
$$$$

 OpenBabel12201709243D

 13 12  0  0  0  0  0  0  0  0999 V2000
    1.1208    0.0222   -0.0430 C   0  0  0  0  0  0  0  0  0  0  0  0
    2.6381    0.0233   -0.0997 C   0  0  0  0  0  0  0  0  0  0  0  0
    3.1041   -0.9817   -1.0111 O   0  0  0  0  0  0  0  0  0  0  0  0
    3.1216   -0.6197   -2.3127 C   0  0  0  0  0  0  0  0  0  0  0  0
    2.7864    0.4582   -2.7757 O   0  0  0  0  0  0  0  0  0  0  0  0
    3.5647   -1.6478   -3.0689 N   0  0  0  0  0  0  0  0  0  0  0  0
    0.7587    0.7668    0.6713 H   0  0  0  0  0  0  0  0  0  0  0  0
    0.7500   -0.9636    0.2551 H   0  0  0  0  0  0  0  0  0  0  0  0
    0.6882    0.2400   -1.0240 H   0  0  0  0  0  0  0  0  0  0  0  0
    3.0419   -0.2258    0.8866 H   0  0  0  0  0  0  0  0  0  0  0  0
    3.0299    1.0116   -0.3675 H   0  0  0  0  0  0  0  0  0  0  0  0
    3.8051   -2.5246   -2.6345 H   0  0  0  0  0  0  0  0  0  0  0  0
    3.6024   -1.5363   -4.0702 H   0  0  0  0  0  0  0  0  0  0  0  0
  1  2  1  0  0  0  0
  1  7  1  0  0  0  0
  1  8  1  0  0  0  0
  1  9  1  0  0  0  0
  2  3  1  0  0  0  0
  2 10  1  0  0  0  0
  2 11  1  0  0  0  0
  3  4  1  0  0  0  0
  4  5  2  0  0  0  0
  4  6  1  0  0  0  0
  6 12  1  0  0  0  0
  6 13  1  0  0  0  0
M  END
$$$$

 OpenBabel12201709243D

 35 36  0  0  0  0  0  0  0  0999 V2000
    4.8685   -1.3945   -1.5490 C   0  0  0  0  0  0  0  0  0  0  0  0
    3.6220   -0.6855   -1.0463 C   0  0  0  0  0  0  0  0  0  0  0  0
    3.7197    0.7115   -1.3621 O   0  0  0  0  0  0  0  0  0  0  0  0
    4.4471    1.4587   -0.4716 C   0  0  0  0  0  0  0  0  0  0  0  0
    4.7716    1.0622    0.6449 O   0  0  0  0  0  0  0  0  0  0  0  0
    4.8629    2.8302   -1.1115 C   0  0  0  0  0  0  0  0  0  0  0  0
    4.3752    2.9053   -2.4697 O   0  0  0  0  0  0  0  0  0  0  0  0
    4.2684    4.0590   -0.3944 C   0  0  0  0  0  0  0  0  0  0  0  0
    3.8833    4.0433    0.9597 C   0  0  0  0  0  0  0  0  0  0  0  0
    3.4060    5.1994    1.5888 C   0  0  0  0  0  0  0  0  0  0  0  0
    3.3015    6.3893    0.8755 C   0  0  0  0  0  0  0  0  0  0  0  0
    2.7404    7.8129    1.6603 Cl  0  0  0  0  0  0  0  0  0  0  0  0
    3.6643    6.4340   -0.4655 C   0  0  0  0  0  0  0  0  0  0  0  0
    4.1492    5.2818   -1.0907 C   0  0  0  0  0  0  0  0  0  0  0  0
    6.4039    2.8453   -1.1764 C   0  0  0  0  0  0  0  0  0  0  0  0
    7.0757    2.3195   -2.2979 C   0  0  0  0  0  0  0  0  0  0  0  0
    8.4711    2.2372   -2.3325 C   0  0  0  0  0  0  0  0  0  0  0  0
    9.2174    2.6713   -1.2426 C   0  0  0  0  0  0  0  0  0  0  0  0
   10.9330    2.5553   -1.2790 Cl  0  0  0  0  0  0  0  0  0  0  0  0
    8.5803    3.1846   -0.1181 C   0  0  0  0  0  0  0  0  0  0  0  0
    7.1844    3.2651   -0.0821 C   0  0  0  0  0  0  0  0  0  0  0  0
    4.8403   -2.4596   -1.3060 H   0  0  0  0  0  0  0  0  0  0  0  0
    5.7739   -0.9573   -1.1141 H   0  0  0  0  0  0  0  0  0  0  0  0
    4.9569   -1.2817   -2.6353 H   0  0  0  0  0  0  0  0  0  0  0  0
    3.4692   -0.8472    0.0264 H   0  0  0  0  0  0  0  0  0  0  0  0
    2.7394   -1.0766   -1.5619 H   0  0  0  0  0  0  0  0  0  0  0  0
    3.4182    2.7413   -2.4157 H   0  0  0  0  0  0  0  0  0  0  0  0
    3.9708    3.1445    1.5672 H   0  0  0  0  0  0  0  0  0  0  0  0
    3.1312    5.1640    2.6403 H   0  0  0  0  0  0  0  0  0  0  0  0
    3.5867    7.3605   -1.0284 H   0  0  0  0  0  0  0  0  0  0  0  0
    4.4494    5.3467   -2.1370 H   0  0  0  0  0  0  0  0  0  0  0  0
    6.5115    1.9553   -3.1562 H   0  0  0  0  0  0  0  0  0  0  0  0
    8.9629    1.8231   -3.2087 H   0  0  0  0  0  0  0  0  0  0  0  0
    9.1598    3.5115    0.7412 H   0  0  0  0  0  0  0  0  0  0  0  0
    6.7186    3.6420    0.8260 H   0  0  0  0  0  0  0  0  0  0  0  0
  1  2  1  0  0  0  0
  1 22  1  0  0  0  0
  1 23  1  0  0  0  0
  1 24  1  0  0  0  0
  2  3  1  0  0  0  0
  2 25  1  0  0  0  0
  2 26  1  0  0  0  0
  3  4  1  0  0  0  0
  4  5  2  0  0  0  0
  4  6  1  0  0  0  0
  6  7  1  0  0  0  0
  6  8  1  0  0  0  0
  6 15  1  0  0  0  0
  7 27  1  0  0  0  0
  8  9  2  0  0  0  0
  8 14  1  0  0  0  0
  9 10  1  0  0  0  0
  9 28  1  0  0  0  0
 10 11  2  0  0  0  0
 10 29  1  0  0  0  0
 11 12  1  0  0  0  0
 11 13  1  0  0  0  0
 13 14  2  0  0  0  0
 13 30  1  0  0  0  0
 14 31  1  0  0  0  0
 15 16  2  0  0  0  0
 15 21  1  0  0  0  0
 16 17  1  0  0  0  0
 16 32  1  0  0  0  0
 17 18  2  0  0  0  0
 17 33  1  0  0  0  0
 18 19  1  0  0  0  0
 18 20  1  0  0  0  0
 20 21  2  0  0  0  0
 20 34  1  0  0  0  0
 21 35  1  0  0  0  0
M  END
$$$$

 OpenBabel12201709243D

 17 16  0  0  0  0  0  0  0  0999 V2000
    3.1822    0.3961    1.1857 C   0  0  0  0  0  0  0  0  0  0  0  0
    2.4647   -0.0692    0.0567 O   0  0  0  0  0  0  0  0  0  0  0  0
    3.0414   -1.5300   -0.6689 P   0  0  0  0  0  0  0  0  0  0  0  0
    2.7651   -2.2769    0.6444 O   0  0  0  0  0  0  0  0  0  0  0  0
    1.6854   -1.5756   -1.5980 O   0  0  0  0  0  0  0  0  0  0  0  0
    1.7421   -0.9326   -2.8524 C   0  0  0  0  0  0  0  0  0  0  0  0
    3.6180   -2.9908   -1.3946 O   0  0  0  0  0  0  0  0  0  0  0  0
    2.8363   -4.1694   -1.2675 C   0  0  0  0  0  0  0  0  0  0  0  0
    3.4502    1.4424    1.0214 H   0  0  0  0  0  0  0  0  0  0  0  0
    4.0985   -0.1779    1.3535 H   0  0  0  0  0  0  0  0  0  0  0  0
    2.5394    0.3283    2.0666 H   0  0  0  0  0  0  0  0  0  0  0  0
    1.5855   -1.6760   -3.6377 H   0  0  0  0  0  0  0  0  0  0  0  0
    2.7056   -0.4384   -3.0102 H   0  0  0  0  0  0  0  0  0  0  0  0
    0.9427   -0.1870   -2.9043 H   0  0  0  0  0  0  0  0  0  0  0  0
    3.2088   -4.9010   -1.9906 H   0  0  0  0  0  0  0  0  0  0  0  0
    1.7826   -3.9825   -1.4835 H   0  0  0  0  0  0  0  0  0  0  0  0
    2.9480   -4.5939   -0.2652 H   0  0  0  0  0  0  0  0  0  0  0  0
  1  2  1  0  0  0  0
  1  9  1  0  0  0  0
  1 10  1  0  0  0  0
  1 11  1  0  0  0  0
  2  3  1  0  0  0  0
  3  4  2  0  0  0  0
  3  5  1  0  0  0  0
  3  7  1  0  0  0  0
  5  6  1  0  0  0  0
  6 12  1  0  0  0  0
  6 13  1  0  0  0  0
  6 14  1  0  0  0  0
  7  8  1  0  0  0  0
  8 15  1  0  0  0  0
  8 16  1  0  0  0  0
  8 17  1  0  0  0  0
M  END
$$$$

 OpenBabel12201709243D

 12 11  0  0  0  0  0  0  0  0999 V2000
    1.0665   -0.0675   -0.0038 C   0  0  0  0  0  0  0  0  0  0  0  0
    2.5661   -0.0320   -0.0942 C   0  0  0  0  0  0  0  0  0  0  0  0
    3.2657    0.3857   -1.1595 C   0  0  0  0  0  0  0  0  0  0  0  0
    2.6033    0.9620   -2.6293 Cl  0  0  0  0  0  0  0  0  0  0  0  0
    3.3009   -0.5110    1.1278 C   0  0  0  0  0  0  0  0  0  0  0  0
    0.5669    0.2874   -0.9089 H   0  0  0  0  0  0  0  0  0  0  0  0
    0.7259    0.5612    0.8258 H   0  0  0  0  0  0  0  0  0  0  0  0
    0.7259   -1.0925    0.1774 H   0  0  0  0  0  0  0  0  0  0  0  0
    4.3491    0.3980   -1.1907 H   0  0  0  0  0  0  0  0  0  0  0  0
    2.6068   -0.8203    1.9165 H   0  0  0  0  0  0  0  0  0  0  0  0
    3.9301    0.2862    1.5373 H   0  0  0  0  0  0  0  0  0  0  0  0
    3.9301   -1.3742    0.8864 H   0  0  0  0  0  0  0  0  0  0  0  0
  1  2  1  0  0  0  0
  1  6  1  0  0  0  0
  1  7  1  0  0  0  0
  1  8  1  0  0  0  0
  2  3  2  0  0  0  0
  2  5  1  0  0  0  0
  3  4  1  0  0  0  0
  3  9  1  0  0  0  0
  5 10  1  0  0  0  0
  5 11  1  0  0  0  0
  5 12  1  0  0  0  0
M  END
$$$$

 OpenBabel12201709243D

 16 16  0  0  0  0  0  0  0  0999 V2000
    0.9954   -0.0049    0.2864 N   0  0  0  0  0  0  0  0  0  0  0  0
    2.3642   -0.0219   -0.0086 C   0  0  0  0  0  0  0  0  0  0  0  0
    3.0857    1.1731   -0.0436 C   0  0  0  0  0  0  0  0  0  0  0  0
    4.4737    1.1609   -0.1921 C   0  0  0  0  0  0  0  0  0  0  0  0
    5.1512   -0.0556   -0.2800 C   0  0  0  0  0  0  0  0  0  0  0  0
    6.8718   -0.0286   -0.4577 Cl  0  0  0  0  0  0  0  0  0  0  0  0
    4.4525   -1.2739   -0.2387 C   0  0  0  0  0  0  0  0  0  0  0  0
    5.1210   -2.5119   -0.1683 N   0  0  0  0  0  0  0  0  0  0  0  0
    3.0664   -1.2337   -0.0316 C   0  0  0  0  0  0  0  0  0  0  0  0
    0.5183    0.8382   -0.0180 H   0  0  0  0  0  0  0  0  0  0  0  0
    0.5027   -0.8470    0.0050 H   0  0  0  0  0  0  0  0  0  0  0  0
    2.5735    2.1263    0.0592 H   0  0  0  0  0  0  0  0  0  0  0  0
    5.0204    2.0994   -0.2170 H   0  0  0  0  0  0  0  0  0  0  0  0
    6.0542   -2.4722   -0.5737 H   0  0  0  0  0  0  0  0  0  0  0  0
    4.5765   -3.2977   -0.5072 H   0  0  0  0  0  0  0  0  0  0  0  0
    2.5245   -2.1643    0.1146 H   0  0  0  0  0  0  0  0  0  0  0  0
  1  2  1  0  0  0  0
  1 10  1  0  0  0  0
  1 11  1  0  0  0  0
  2  3  2  0  0  0  0
  2  9  1  0  0  0  0
  3  4  1  0  0  0  0
  3 12  1  0  0  0  0
  4  5  2  0  0  0  0
  4 13  1  0  0  0  0
  5  6  1  0  0  0  0
  5  7  1  0  0  0  0
  7  8  1  0  0  0  0
  7  9  2  0  0  0  0
  8 14  1  0  0  0  0
  8 15  1  0  0  0  0
  9 16  1  0  0  0  0
M  END
$$$$

 OpenBabel12201709243D

 33 34  0  0  0  0  0  0  0  0999 V2000
    1.1593    0.1257   -0.1065 C   0  0  0  0  0  0  0  0  0  0  0  0
    2.6268   -0.2184   -0.1358 C   0  0  0  0  0  0  0  0  0  0  0  0
    3.0201   -1.3256    0.2099 O   0  0  0  0  0  0  0  0  0  0  0  0
    3.4007    0.8302   -0.5696 N   0  0  0  0  0  0  0  0  0  0  0  0
    4.7824    0.8043   -0.6979 C   0  0  0  0  0  0  0  0  0  0  0  0
    5.3269    2.0045   -0.8584 N   0  0  0  0  0  0  0  0  0  0  0  0
    6.6490    2.0449   -0.8864 C   0  0  0  0  0  0  0  0  0  0  0  0
    7.3372    3.2499   -0.9633 N   0  0  0  0  0  0  0  0  0  0  0  0
    6.7802    4.4681   -1.2524 C   0  0  0  0  0  0  0  0  0  0  0  0
    5.6130    4.6803   -1.5633 O   0  0  0  0  0  0  0  0  0  0  0  0
    7.7709    5.6056   -1.1847 C   0  0  0  0  0  0  0  0  0  0  0  0
    7.4338    0.9834   -0.7997 N   0  0  0  0  0  0  0  0  0  0  0  0
    6.7819   -0.1767   -0.7180 C   0  0  0  0  0  0  0  0  0  0  0  0
    5.4672   -0.3262   -0.6497 N   0  0  0  0  0  0  0  0  0  0  0  0
    7.6253   -1.3661   -0.7281 C   0  0  0  0  0  0  0  0  0  0  0  0
    8.9963   -1.5304   -0.7946 C   0  0  0  0  0  0  0  0  0  0  0  0
    9.2436   -2.9209   -0.7836 C   0  0  0  0  0  0  0  0  0  0  0  0
    8.0120   -3.5468   -0.7132 C   0  0  0  0  0  0  0  0  0  0  0  0
    7.0214   -2.5963   -0.6804 O   0  0  0  0  0  0  0  0  0  0  0  0
    7.7941   -4.9406   -0.6842 N   0  0  0  0  0  0  0  0  0  0  0  0
    8.7441   -5.6964   -0.7252 O   0  0  0  0  0  0  0  0  0  0  0  0
    6.5085   -5.4469   -0.6136 O   0  0  0  0  0  0  0  0  0  0  0  0
    0.6174   -0.6511    0.4416 H   0  0  0  0  0  0  0  0  0  0  0  0
    0.7737    0.1768   -1.1274 H   0  0  0  0  0  0  0  0  0  0  0  0
    0.9978    1.0800    0.4025 H   0  0  0  0  0  0  0  0  0  0  0  0
    3.0022    1.7508   -0.6937 H   0  0  0  0  0  0  0  0  0  0  0  0
    8.3347    3.1519   -0.8574 H   0  0  0  0  0  0  0  0  0  0  0  0
    8.7522    5.2789   -0.8289 H   0  0  0  0  0  0  0  0  0  0  0  0
    7.3912    6.3650   -0.4953 H   0  0  0  0  0  0  0  0  0  0  0  0
    7.8878    6.0386   -2.1819 H   0  0  0  0  0  0  0  0  0  0  0  0
    9.7236   -0.7328   -0.8491 H   0  0  0  0  0  0  0  0  0  0  0  0
   10.2016   -3.4235   -0.8262 H   0  0  0  0  0  0  0  0  0  0  0  0
    5.9821   -4.6284   -0.5809 H   0  0  0  0  0  0  0  0  0  0  0  0
  1  2  1  0  0  0  0
  1 23  1  0  0  0  0
  1 24  1  0  0  0  0
  1 25  1  0  0  0  0
  2  3  2  0  0  0  0
  2  4  1  0  0  0  0
  4  5  1  0  0  0  0
  4 26  1  0  0  0  0
  5  6  2  0  0  0  0
  5 14  1  0  0  0  0
  6  7  1  0  0  0  0
  7  8  1  0  0  0  0
  7 12  2  0  0  0  0
  8  9  1  0  0  0  0
  8 27  1  0  0  0  0
  9 10  2  0  0  0  0
  9 11  1  0  0  0  0
 11 28  1  0  0  0  0
 11 29  1  0  0  0  0
 11 30  1  0  0  0  0
 12 13  1  0  0  0  0
 13 14  2  0  0  0  0
 13 15  1  0  0  0  0
 15 16  2  0  0  0  0
 15 19  1  0  0  0  0
 16 17  1  0  0  0  0
 16 31  1  0  0  0  0
 17 18  2  0  0  0  0
 17 32  1  0  0  0  0
 18 19  1  0  0  0  0
 18 20  1  0  0  0  0
 20 21  2  0  0  0  0
 20 22  1  0  0  0  0
 22 33  1  0  0  0  0
M  END
$$$$

 OpenBabel12201709243D

 88 92  0  0  0  0  0  0  0  0999 V2000
    2.7324    0.6072    4.6635 C   0  0  0  0  0  0  0  0  0  0  0  0
    3.3876   -0.0892    3.4774 C   0  0  0  0  0  0  0  0  0  0  0  0
    3.3292    0.7443    2.2465 N   0  0  0  0  0  0  0  0  0  0  0  0
    2.2767    0.3256    1.2925 C   0  0  0  0  0  0  0  0  0  0  0  0
    1.4140    1.4696    0.7954 C   0  0  0  0  0  0  0  0  0  0  0  0
    1.0056    2.4957    1.6627 C   0  0  0  0  0  0  0  0  0  0  0  0
    0.0477    3.4374    1.2755 C   0  0  0  0  0  0  0  0  0  0  0  0
   -0.5146    3.3790    0.0046 C   0  0  0  0  0  0  0  0  0  0  0  0
   -0.0799    2.3946   -0.8836 C   0  0  0  0  0  0  0  0  0  0  0  0
    0.8633    1.4349   -0.5007 C   0  0  0  0  0  0  0  0  0  0  0  0
   -0.7868    2.3371   -2.5105 S   0  0  0  0  0  0  0  0  0  0  0  0
   -2.1569    2.7965   -2.4234 O   0  0  0  0  0  0  0  0  0  0  0  0
    0.1723    2.9276   -3.4164 O   0  0  0  0  0  0  0  0  0  0  0  0
   -0.9011    0.7635   -2.8479 O   0  0  0  0  0  0  0  0  0  0  0  0
    4.5653    1.2230    1.7848 C   0  0  0  0  0  0  0  0  0  0  0  0
    4.9839    1.1714    0.4449 C   0  0  0  0  0  0  0  0  0  0  0  0
    6.2923    1.5291    0.0491 C   0  0  0  0  0  0  0  0  0  0  0  0
    7.2249    1.9944    0.9795 C   0  0  0  0  0  0  0  0  0  0  0  0
    6.7921    2.1639    2.2962 C   0  0  0  0  0  0  0  0  0  0  0  0
    5.4927    1.7904    2.6815 C   0  0  0  0  0  0  0  0  0  0  0  0
    8.6559    2.2517    0.6123 C   0  0  0  0  0  0  0  0  0  0  0  0
    9.1070    3.5152    0.3302 C   0  0  0  0  0  0  0  0  0  0  0  0
    8.2059    4.6622    0.2049 C   0  0  0  0  0  0  0  0  0  0  0  0
    8.6609    5.9203    0.3278 C   0  0  0  0  0  0  0  0  0  0  0  0
   10.1172    6.1751    0.6086 C   0  0  0  0  0  0  0  0  0  0  0  0
   10.5546    7.2676    1.1778 N   0  0  0  0  0  0  0  0  0  0  0  0
    9.6246    8.2759    1.8340 C   0  0  0  0  0  0  0  0  0  0  0  0
    9.2660    9.4201    0.9068 C   0  0  0  0  0  0  0  0  0  0  0  0
   12.0296    7.5216    1.4388 C   0  0  0  0  0  0  0  0  0  0  0  0
   12.8047    8.1767    0.3152 C   0  0  0  0  0  0  0  0  0  0  0  0
   14.2049    8.2768    0.4420 C   0  0  0  0  0  0  0  0  0  0  0  0
   14.9891    8.8598   -0.5609 C   0  0  0  0  0  0  0  0  0  0  0  0
   14.3879    9.4079   -1.6885 C   0  0  0  0  0  0  0  0  0  0  0  0
   12.9997    9.3757   -1.7929 C   0  0  0  0  0  0  0  0  0  0  0  0
   12.2135    8.7391   -0.8233 C   0  0  0  0  0  0  0  0  0  0  0  0
   12.2075   10.2657   -3.1113 S   0  0  0  0  0  0  0  0  0  0  0  0
   12.6430    9.6748   -4.3535 O   0  0  0  0  0  0  0  0  0  0  0  0
   10.8100   10.3946   -2.7557 O   0  0  0  0  0  0  0  0  0  0  0  0
   12.8748   11.7319   -3.0333 O   0  0  0  0  0  0  0  0  0  0  0  0
   11.0154    5.0524    0.1640 C   0  0  0  0  0  0  0  0  0  0  0  0
   10.5198    3.8091    0.0389 C   0  0  0  0  0  0  0  0  0  0  0  0
    9.6370    1.1202    0.6219 C   0  0  0  0  0  0  0  0  0  0  0  0
   10.4600    0.8760    1.7376 C   0  0  0  0  0  0  0  0  0  0  0  0
   11.4961   -0.0652    1.6657 C   0  0  0  0  0  0  0  0  0  0  0  0
   11.6986   -0.7728    0.4800 C   0  0  0  0  0  0  0  0  0  0  0  0
   10.8452   -0.6014   -0.6098 C   0  0  0  0  0  0  0  0  0  0  0  0
    9.8187    0.3470   -0.5364 C   0  0  0  0  0  0  0  0  0  0  0  0
   13.0800   -1.8770    0.3327 S   0  0  0  0  0  0  0  0  0  0  0  0
   12.6841   -2.9826   -0.5054 O   0  0  0  0  0  0  0  0  0  0  0  0
   14.2409   -1.0612    0.0530 O   0  0  0  0  0  0  0  0  0  0  0  0
   13.2527   -2.5104    1.8101 O   0  0  0  0  0  0  0  0  0  0  0  0
    2.7296   -0.0601    5.5329 H   0  0  0  0  0  0  0  0  0  0  0  0
    1.6945    0.8810    4.4511 H   0  0  0  0  0  0  0  0  0  0  0  0
    3.2708    1.5166    4.9460 H   0  0  0  0  0  0  0  0  0  0  0  0
    2.8708   -1.0444    3.3149 H   0  0  0  0  0  0  0  0  0  0  0  0
    4.4139   -0.3718    3.7403 H   0  0  0  0  0  0  0  0  0  0  0  0
    1.5700   -0.3550    1.7885 H   0  0  0  0  0  0  0  0  0  0  0  0
    2.6926   -0.2622    0.4664 H   0  0  0  0  0  0  0  0  0  0  0  0
    1.4236    2.5517    2.6654 H   0  0  0  0  0  0  0  0  0  0  0  0
   -0.2694    4.2057    1.9771 H   0  0  0  0  0  0  0  0  0  0  0  0
   -1.2820    4.0948   -0.2821 H   0  0  0  0  0  0  0  0  0  0  0  0
    1.1508    0.6497   -1.1973 H   0  0  0  0  0  0  0  0  0  0  0  0
   -1.8573    0.5492   -2.9087 H   0  0  0  0  0  0  0  0  0  0  0  0
    4.3216    0.8047   -0.3336 H   0  0  0  0  0  0  0  0  0  0  0  0
    6.5675    1.4126   -0.9969 H   0  0  0  0  0  0  0  0  0  0  0  0
    7.4630    2.5627    3.0531 H   0  0  0  0  0  0  0  0  0  0  0  0
    5.2088    1.9377    3.7205 H   0  0  0  0  0  0  0  0  0  0  0  0
    7.1623    4.4841   -0.0471 H   0  0  0  0  0  0  0  0  0  0  0  0
    7.9807    6.7537    0.1939 H   0  0  0  0  0  0  0  0  0  0  0  0
   10.1217    8.6630    2.7298 H   0  0  0  0  0  0  0  0  0  0  0  0
    8.7300    7.7513    2.1815 H   0  0  0  0  0  0  0  0  0  0  0  0
   10.1387   10.0329    0.6609 H   0  0  0  0  0  0  0  0  0  0  0  0
    8.5457   10.0820    1.4004 H   0  0  0  0  0  0  0  0  0  0  0  0
    8.8145    9.0722   -0.0272 H   0  0  0  0  0  0  0  0  0  0  0  0
   12.4903    6.5622    1.7001 H   0  0  0  0  0  0  0  0  0  0  0  0
   12.1087    8.1490    2.3342 H   0  0  0  0  0  0  0  0  0  0  0  0
   14.7131    7.9034    1.3320 H   0  0  0  0  0  0  0  0  0  0  0  0
   16.0722    8.9041   -0.4522 H   0  0  0  0  0  0  0  0  0  0  0  0
   14.9978    9.8688   -2.4624 H   0  0  0  0  0  0  0  0  0  0  0  0
   11.1387    8.7237   -0.9773 H   0  0  0  0  0  0  0  0  0  0  0  0
   13.3806   11.8874   -3.8598 H   0  0  0  0  0  0  0  0  0  0  0  0
   12.0643    5.2302   -0.0462 H   0  0  0  0  0  0  0  0  0  0  0  0
   11.1780    3.0067   -0.2869 H   0  0  0  0  0  0  0  0  0  0  0  0
   10.3246    1.4404    2.6570 H   0  0  0  0  0  0  0  0  0  0  0  0
   12.1564   -0.2158    2.5187 H   0  0  0  0  0  0  0  0  0  0  0  0
   10.9907   -1.1749   -1.5244 H   0  0  0  0  0  0  0  0  0  0  0  0
    9.1837    0.5015   -1.4065 H   0  0  0  0  0  0  0  0  0  0  0  0
   13.0680   -3.4738    1.7369 H   0  0  0  0  0  0  0  0  0  0  0  0
  1  2  1  0  0  0  0
  1 52  1  0  0  0  0
  1 53  1  0  0  0  0
  1 54  1  0  0  0  0
  2  3  1  0  0  0  0
  2 55  1  0  0  0  0
  2 56  1  0  0  0  0
  3  4  1  0  0  0  0
  3 15  1  0  0  0  0
  4  5  1  0  0  0  0
  4 57  1  0  0  0  0
  4 58  1  0  0  0  0
  5  6  2  0  0  0  0
  5 10  1  0  0  0  0
  6  7  1  0  0  0  0
  6 59  1  0  0  0  0
  7  8  2  0  0  0  0
  7 60  1  0  0  0  0
  8  9  1  0  0  0  0
  8 61  1  0  0  0  0
  9 10  2  0  0  0  0
  9 11  1  0  0  0  0
 10 62  1  0  0  0  0
 11 12  2  0  0  0  0
 11 13  2  0  0  0  0
 11 14  1  0  0  0  0
 14 63  1  0  0  0  0
 15 16  2  0  0  0  0
 15 20  1  0  0  0  0
 16 17  1  0  0  0  0
 16 64  1  0  0  0  0
 17 18  2  0  0  0  0
 17 65  1  0  0  0  0
 18 19  1  0  0  0  0
 18 21  1  0  0  0  0
 19 20  2  0  0  0  0
 19 66  1  0  0  0  0
 20 67  1  0  0  0  0
 21 22  2  3  0  0  0
 21 42  1  0  0  0  0
 22 23  1  0  0  0  0
 22 41  1  0  0  0  0
 23 24  2  0  0  0  0
 23 68  1  0  0  0  0
 24 25  1  0  0  0  0
 24 69  1  0  0  0  0
 25 26  2  3  0  0  0
 25 40  1  0  0  0  0
 26 27  1  0  0  0  0
 26 29  1  0  0  0  0
 27 28  1  0  0  0  0
 27 70  1  0  0  0  0
 27 71  1  0  0  0  0
 28 72  1  0  0  0  0
 28 73  1  0  0  0  0
 28 74  1  0  0  0  0
 29 30  1  0  0  0  0
 29 75  1  0  0  0  0
 29 76  1  0  0  0  0
 30 31  2  0  0  0  0
 30 35  1  0  0  0  0
 31 32  1  0  0  0  0
 31 77  1  0  0  0  0
 32 33  2  0  0  0  0
 32 78  1  0  0  0  0
 33 34  1  0  0  0  0
 33 79  1  0  0  0  0
 34 35  2  0  0  0  0
 34 36  1  0  0  0  0
 35 80  1  0  0  0  0
 36 37  2  0  0  0  0
 36 38  2  0  0  0  0
 36 39  1  0  0  0  0
 39 81  1  0  0  0  0
 40 41  2  0  0  0  0
 40 82  1  0  0  0  0
 41 83  1  0  0  0  0
 42 43  2  0  0  0  0
 42 47  1  0  0  0  0
 43 44  1  0  0  0  0
 43 84  1  0  0  0  0
 44 45  2  0  0  0  0
 44 85  1  0  0  0  0
 45 46  1  0  0  0  0
 45 48  1  0  0  0  0
 46 47  2  0  0  0  0
 46 86  1  0  0  0  0
 47 87  1  0  0  0  0
 48 49  2  0  0  0  0
 48 50  2  0  0  0  0
 48 51  1  0  0  0  0
 51 88  1  0  0  0  0
M  END
$$$$

 OpenBabel12201709243D

 24 24  0  0  1  0  0  0  0  0999 V2000
    1.1881   -0.1101    0.6477 C   0  0  0  0  0  0  0  0  0  0  0  0
    2.4771    0.1080    0.0772 O   0  0  0  0  0  0  0  0  0  0  0  0
    2.9573   -0.9546   -0.6410 C   0  0  0  0  0  0  0  0  0  0  0  0
    3.7412   -0.6408   -1.7515 C   0  0  0  0  0  0  0  0  0  0  0  0
    4.2289   -1.6583   -2.5758 C   0  0  0  0  0  0  0  0  0  0  0  0
    3.9577   -3.0064   -2.2904 C   0  0  0  0  0  0  0  0  0  0  0  0
    3.2205   -3.3061   -1.1337 C   0  0  0  0  0  0  0  0  0  0  0  0
    2.7308   -2.2886   -0.3144 C   0  0  0  0  0  0  0  0  0  0  0  0
    4.3791   -4.0821   -3.2727 C   0  0  3  0  0  0  0  0  0  0  0  0
    4.6584   -5.3014   -2.5879 O   0  0  0  0  0  0  0  0  0  0  0  0
    3.3756   -4.3905   -4.3595 C   0  0  0  0  0  0  0  0  0  0  0  0
    2.1861   -3.8142   -4.5773 C   0  0  0  0  0  0  0  0  0  0  0  0
    0.8281    0.8464    1.0365 H   0  0  0  0  0  0  0  0  0  0  0  0
    1.2382   -0.8077    1.4887 H   0  0  0  0  0  0  0  0  0  0  0  0
    0.4726   -0.4576   -0.1060 H   0  0  0  0  0  0  0  0  0  0  0  0
    3.9434    0.3976   -1.9941 H   0  0  0  0  0  0  0  0  0  0  0  0
    4.8039   -1.3904   -3.4611 H   0  0  0  0  0  0  0  0  0  0  0  0
    3.0052   -4.3357   -0.8619 H   0  0  0  0  0  0  0  0  0  0  0  0
    2.1746   -2.5693    0.5722 H   0  0  0  0  0  0  0  0  0  0  0  0
    5.3203   -3.7784   -3.7449 H   0  0  0  0  0  0  0  0  0  0  0  0
    3.8000   -5.7025   -2.3763 H   0  0  0  0  0  0  0  0  0  0  0  0
    3.6901   -5.1758   -5.0466 H   0  0  0  0  0  0  0  0  0  0  0  0
    1.8015   -3.0143   -3.9489 H   0  0  0  0  0  0  0  0  0  0  0  0
    1.5601   -4.1245   -5.4073 H   0  0  0  0  0  0  0  0  0  0  0  0
  1  2  1  0  0  0  0
  1 13  1  0  0  0  0
  1 14  1  0  0  0  0
  1 15  1  0  0  0  0
  2  3  1  0  0  0  0
  3  4  2  0  0  0  0
  3  8  1  0  0  0  0
  4  5  1  0  0  0  0
  4 16  1  0  0  0  0
  5  6  2  0  0  0  0
  5 17  1  0  0  0  0
  6  7  1  0  0  0  0
  6  9  1  0  0  0  0
  7  8  2  0  0  0  0
  7 18  1  0  0  0  0
  8 19  1  0  0  0  0
  9 10  1  0  0  0  0
  9 11  1  0  0  0  0
  9 20  1  0  0  0  0
 10 21  1  0  0  0  0
 11 12  2  0  0  0  0
 11 22  1  0  0  0  0
 12 23  1  0  0  0  0
 12 24  1  0  0  0  0
M  END
$$$$

 OpenBabel12201709243D

 36 39  0  0  1  0  0  0  0  0999 V2000
    0.8849    0.2950   -0.1317 O   0  0  0  0  0  0  0  0  0  0  0  0
    2.2391    0.1757    0.0053 C   0  0  0  0  0  0  0  0  0  0  0  0
    2.7877   -1.0806    0.2463 C   0  0  0  0  0  0  0  0  0  0  0  0
    4.1624   -1.1955    0.3898 C   0  0  0  0  0  0  0  0  0  0  0  0
    4.9865   -0.0621    0.2656 C   0  0  0  0  0  0  0  0  0  0  0  0
    6.4460   -0.2511    0.3079 C   0  0  3  0  0  0  0  0  0  0  0  0
    7.0912   -0.3272    1.6623 C   0  0  0  0  0  0  0  0  0  0  0  0
    6.7980    0.2990    2.8670 C   0  0  0  0  0  0  0  0  0  0  0  0
    7.7882    0.2883    3.8460 C   0  0  0  0  0  0  0  0  0  0  0  0
    7.7262    1.1643    4.8915 O   0  0  0  0  0  0  0  0  0  0  0  0
    8.9342   -0.4907    3.6905 C   0  0  0  0  0  0  0  0  0  0  0  0
    9.7518   -0.7486    4.7467 O   0  0  0  0  0  0  0  0  0  0  0  0
    9.2776   -0.9399    2.4326 C   0  0  0  0  0  0  0  0  0  0  0  0
    8.4308   -0.5644    1.4070 C   0  0  0  0  0  0  0  0  0  0  0  0
    8.7542    0.4355    0.2672 C   0  0  0  0  0  0  0  0  0  0  0  0
    7.3219    0.8445   -0.2943 C   0  0  3  0  0  0  0  0  0  0  0  0
    7.3685    0.8294   -1.7255 O   0  0  0  0  0  0  0  0  0  0  0  0
    6.6826    2.1973    0.1125 C   0  0  0  0  0  0  0  0  0  0  0  0
    5.2485    2.3167   -0.2051 O   0  0  0  0  0  0  0  0  0  0  0  0
    4.4533    1.1905    0.0087 C   0  0  0  0  0  0  0  0  0  0  0  0
    3.0621    1.3091   -0.1089 C   0  0  0  0  0  0  0  0  0  0  0  0
    2.4996    2.5299   -0.3703 O   0  0  0  0  0  0  0  0  0  0  0  0
    0.4784   -0.5773   -0.0096 H   0  0  0  0  0  0  0  0  0  0  0  0
    2.1746   -1.9742    0.3153 H   0  0  0  0  0  0  0  0  0  0  0  0
    4.6041   -2.1752    0.5592 H   0  0  0  0  0  0  0  0  0  0  0  0
    6.6527   -1.1828   -0.2462 H   0  0  0  0  0  0  0  0  0  0  0  0
    5.9131    0.9160    2.9881 H   0  0  0  0  0  0  0  0  0  0  0  0
    8.2773    1.9228    4.6054 H   0  0  0  0  0  0  0  0  0  0  0  0
    9.2497   -0.4741    5.5384 H   0  0  0  0  0  0  0  0  0  0  0  0
   10.1575   -1.5477    2.2624 H   0  0  0  0  0  0  0  0  0  0  0  0
    9.4033   -0.0288   -0.4786 H   0  0  0  0  0  0  0  0  0  0  0  0
    9.2459    1.3111    0.7096 H   0  0  0  0  0  0  0  0  0  0  0  0
    7.4849   -0.0864   -2.0410 H   0  0  0  0  0  0  0  0  0  0  0  0
    7.1560    3.0100   -0.4517 H   0  0  0  0  0  0  0  0  0  0  0  0
    6.8204    2.4374    1.1714 H   0  0  0  0  0  0  0  0  0  0  0  0
    3.2486    3.1410   -0.4770 H   0  0  0  0  0  0  0  0  0  0  0  0
  1  2  1  0  0  0  0
  1 23  1  0  0  0  0
  2  3  2  0  0  0  0
  2 21  1  0  0  0  0
  3  4  1  0  0  0  0
  3 24  1  0  0  0  0
  4  5  2  0  0  0  0
  4 25  1  0  0  0  0
  5  6  1  0  0  0  0
  5 20  1  0  0  0  0
  6  7  1  0  0  0  0
  6 16  1  0  0  0  0
  6 26  1  0  0  0  0
  7  8  2  0  0  0  0
  7 14  1  0  0  0  0
  8  9  1  0  0  0  0
  8 27  1  0  0  0  0
  9 10  1  0  0  0  0
  9 11  2  0  0  0  0
 10 28  1  0  0  0  0
 11 12  1  0  0  0  0
 11 13  1  0  0  0  0
 12 29  1  0  0  0  0
 13 14  2  0  0  0  0
 13 30  1  0  0  0  0
 14 15  1  0  0  0  0
 15 16  1  0  0  0  0
 15 31  1  0  0  0  0
 15 32  1  0  0  0  0
 16 17  1  0  0  0  0
 16 18  1  0  0  0  0
 17 33  1  0  0  0  0
 18 19  1  0  0  0  0
 18 34  1  0  0  0  0
 18 35  1  0  0  0  0
 19 20  1  0  0  0  0
 20 21  2  0  0  0  0
 21 22  1  0  0  0  0
 22 36  1  0  0  0  0
M  END
$$$$

 OpenBabel12201709243D

 32 33  0  0  1  0  0  0  0  0999 V2000
    1.1317   -0.2014   -0.1499 C   0  0  0  0  0  0  0  0  0  0  0  0
    2.6230   -0.1047    0.1664 C   0  0  3  0  0  0  0  0  0  0  0  0
    2.9922   -1.3429    0.7841 O   0  0  0  0  0  0  0  0  0  0  0  0
    4.2439   -1.3501    1.3462 C   0  0  0  0  0  0  0  0  0  0  0  0
    5.0080   -0.2850    1.6729 C   0  0  0  0  0  0  0  0  0  0  0  0
    6.3505   -0.4196    2.2676 C   0  0  0  0  0  0  0  0  0  0  0  0
    7.1174    0.6627    2.5214 C   0  0  0  0  0  0  0  0  0  0  0  0
    8.4563    0.5229    3.1778 C   0  0  0  0  0  0  0  0  0  0  0  0
    8.9582   -0.5259    3.5471 O   0  0  0  0  0  0  0  0  0  0  0  0
    9.1140    1.6932    3.3839 O   0  0  0  0  0  0  0  0  0  0  0  0
    6.5974    2.0046    2.1460 C   0  0  0  0  0  0  0  0  0  0  0  0
    7.3167    2.9968    2.2892 O   0  0  0  0  0  0  0  0  0  0  0  0
    5.2016    2.1546    1.6344 C   0  0  0  0  0  0  0  0  0  0  0  0
    4.4428    1.0536    1.4534 C   0  0  0  0  0  0  0  0  0  0  0  0
    2.9773    1.1134    1.0411 C   0  0  3  0  0  0  0  0  0  0  0  0
    2.0961    1.2472    2.2897 C   0  0  0  0  0  0  0  0  0  0  0  0
    4.7178    3.5587    1.4006 C   0  0  0  0  0  0  0  0  0  0  0  0
    6.8116   -1.6923    2.5467 O   0  0  0  0  0  0  0  0  0  0  0  0
    0.9473   -1.0138   -0.8611 H   0  0  0  0  0  0  0  0  0  0  0  0
    0.7490    0.7300   -0.5780 H   0  0  0  0  0  0  0  0  0  0  0  0
    0.5502   -0.4495    0.7449 H   0  0  0  0  0  0  0  0  0  0  0  0
    3.1651   -0.0361   -0.7875 H   0  0  0  0  0  0  0  0  0  0  0  0
    4.5043   -2.3895    1.4964 H   0  0  0  0  0  0  0  0  0  0  0  0
    8.6477    2.4940    3.0445 H   0  0  0  0  0  0  0  0  0  0  0  0
    2.8052    2.0045    0.4224 H   0  0  0  0  0  0  0  0  0  0  0  0
    2.0787    0.3251    2.8795 H   0  0  0  0  0  0  0  0  0  0  0  0
    1.0661    1.4950    2.0117 H   0  0  0  0  0  0  0  0  0  0  0  0
    2.4474    2.0544    2.9425 H   0  0  0  0  0  0  0  0  0  0  0  0
    5.4411    4.3189    1.7094 H   0  0  0  0  0  0  0  0  0  0  0  0
    3.8012    3.7568    1.9646 H   0  0  0  0  0  0  0  0  0  0  0  0
    4.5189    3.7182    0.3358 H   0  0  0  0  0  0  0  0  0  0  0  0
    6.1095   -2.3554    2.5417 H   0  0  0  0  0  0  0  0  0  0  0  0
  1  2  1  0  0  0  0
  1 19  1  0  0  0  0
  1 20  1  0  0  0  0
  1 21  1  0  0  0  0
  2  3  1  0  0  0  0
  2 15  1  0  0  0  0
  2 22  1  0  0  0  0
  3  4  1  0  0  0  0
  4  5  2  0  0  0  0
  4 23  1  0  0  0  0
  5  6  1  0  0  0  0
  5 14  1  0  0  0  0
  6  7  2  0  0  0  0
  6 18  1  0  0  0  0
  7  8  1  0  0  0  0
  7 11  1  0  0  0  0
  8  9  2  0  0  0  0
  8 10  1  0  0  0  0
 10 24  1  0  0  0  0
 11 12  2  0  0  0  0
 11 13  1  0  0  0  0
 13 14  2  0  0  0  0
 13 17  1  0  0  0  0
 14 15  1  0  0  0  0
 15 16  1  0  0  0  0
 15 25  1  0  0  0  0
 16 26  1  0  0  0  0
 16 27  1  0  0  0  0
 16 28  1  0  0  0  0
 17 29  1  0  0  0  0
 17 30  1  0  0  0  0
 17 31  1  0  0  0  0
 18 32  1  0  0  0  0
M  END
$$$$

 OpenBabel12201709243D

 23 25  0  0  0  0  0  0  0  0999 V2000
    0.9294   -0.0664   -0.0244 S   0  0  0  0  0  0  0  0  0  0  0  0
    2.8268   -0.0664   -0.0244 P   0  0  0  0  0  0  0  0  0  0  0  0
    2.9508   -0.8156    1.5146 N   0  0  0  0  0  0  0  0  0  0  0  0
    2.4781   -2.1498    1.8725 C   0  0  0  0  0  0  0  0  0  0  0  0
    3.9327   -1.7886    1.9811 C   0  0  0  0  0  0  0  0  0  0  0  0
    2.9895   -1.1268   -1.3648 N   0  0  0  0  0  0  0  0  0  0  0  0
    3.6482   -2.4202   -1.4284 C   0  0  0  0  0  0  0  0  0  0  0  0
    2.1765   -2.3033   -1.6843 C   0  0  0  0  0  0  0  0  0  0  0  0
    4.6068   -0.0664   -0.0244 N   0  0  0  0  0  0  0  0  0  0  0  0
    5.3170    0.8066   -0.9546 C   0  0  0  0  0  0  0  0  0  0  0  0
    5.1811    1.1868    0.4916 C   0  0  0  0  0  0  0  0  0  0  0  0
    2.1750   -2.8335    1.0981 H   0  0  0  0  0  0  0  0  0  0  0  0
    1.8867   -2.1975    2.7782 H   0  0  0  0  0  0  0  0  0  0  0  0
    4.6282   -2.2331    1.2863 H   0  0  0  0  0  0  0  0  0  0  0  0
    4.3351   -1.6056    2.9650 H   0  0  0  0  0  0  0  0  0  0  0  0
    3.9432   -2.9394   -0.5328 H   0  0  0  0  0  0  0  0  0  0  0  0
    4.2902   -2.5864   -2.2845 H   0  0  0  0  0  0  0  0  0  0  0  0
    1.5011   -2.7164   -0.9477 H   0  0  0  0  0  0  0  0  0  0  0  0
    1.8104   -2.3431   -2.7024 H   0  0  0  0  0  0  0  0  0  0  0  0
    4.7342    1.3234   -1.7006 H   0  0  0  0  0  0  0  0  0  0  0  0
    6.2827    0.4365   -1.2850 H   0  0  0  0  0  0  0  0  0  0  0  0
    4.4984    1.9862    0.7505 H   0  0  0  0  0  0  0  0  0  0  0  0
    6.0245    1.0581    1.1572 H   0  0  0  0  0  0  0  0  0  0  0  0
  1  2  2  0  0  0  0
  2  3  1  0  0  0  0
  2  6  1  0  0  0  0
  2  9  1  0  0  0  0
  3  4  1  0  0  0  0
  3  5  1  0  0  0  0
  4  5  1  0  0  0  0
  4 12  1  0  0  0  0
  4 13  1  0  0  0  0
  5 14  1  0  0  0  0
  5 15  1  0  0  0  0
  6  7  1  0  0  0  0
  6  8  1  0  0  0  0
  7  8  1  0  0  0  0
  7 16  1  0  0  0  0
  7 17  1  0  0  0  0
  8 18  1  0  0  0  0
  8 19  1  0  0  0  0
  9 10  1  0  0  0  0
  9 11  1  0  0  0  0
 10 11  1  0  0  0  0
 10 20  1  0  0  0  0
 10 21  1  0  0  0  0
 11 22  1  0  0  0  0
 11 23  1  0  0  0  0
M  END
$$$$

 OpenBabel12201709243D

 31 33  0  0  0  0  0  0  0  0999 V2000
    1.1039    0.4906    0.7552 O   0  0  0  0  0  0  0  0  0  0  0  0
    2.4141    0.3011    0.4315 C   0  0  0  0  0  0  0  0  0  0  0  0
    3.0926   -0.8473    0.8081 C   0  0  0  0  0  0  0  0  0  0  0  0
    4.4468   -0.9846    0.4789 C   0  0  0  0  0  0  0  0  0  0  0  0
    5.1386    0.0008   -0.2518 C   0  0  0  0  0  0  0  0  0  0  0  0
    4.4155    1.1488   -0.6225 C   0  0  0  0  0  0  0  0  0  0  0  0
    3.0634    1.2983   -0.2827 C   0  0  0  0  0  0  0  0  0  0  0  0
    6.5885   -0.1256   -0.5870 C   0  0  0  0  0  0  0  0  0  0  0  0
    7.2465    1.1009   -0.6893 O   0  0  0  0  0  0  0  0  0  0  0  0
    8.5838    1.1245   -1.0104 C   0  0  0  0  0  0  0  0  0  0  0  0
    9.1728    2.3884   -1.1454 C   0  0  0  0  0  0  0  0  0  0  0  0
   10.5234    2.4799   -1.4648 C   0  0  0  0  0  0  0  0  0  0  0  0
   11.1456    3.6839   -1.6141 O   0  0  0  0  0  0  0  0  0  0  0  0
   11.2975    1.3397   -1.6490 C   0  0  0  0  0  0  0  0  0  0  0  0
   10.7092    0.0834   -1.5141 C   0  0  0  0  0  0  0  0  0  0  0  0
   11.4794   -1.0282   -1.6998 O   0  0  0  0  0  0  0  0  0  0  0  0
    9.3485   -0.0288   -1.1978 C   0  0  0  0  0  0  0  0  0  0  0  0
    8.6688   -1.3263   -1.0626 C   0  0  0  0  0  0  0  0  0  0  0  0
    9.2027   -2.4259   -1.1714 O   0  0  0  0  0  0  0  0  0  0  0  0
    7.2133   -1.3037   -0.7757 C   0  0  0  0  0  0  0  0  0  0  0  0
    6.6028   -2.5435   -0.7242 O   0  0  0  0  0  0  0  0  0  0  0  0
    0.8098   -0.2566    1.3025 H   0  0  0  0  0  0  0  0  0  0  0  0
    2.5991   -1.6440    1.3562 H   0  0  0  0  0  0  0  0  0  0  0  0
    4.9516   -1.8872    0.8139 H   0  0  0  0  0  0  0  0  0  0  0  0
    4.8938    1.9472   -1.1854 H   0  0  0  0  0  0  0  0  0  0  0  0
    2.5210    2.1934   -0.5738 H   0  0  0  0  0  0  0  0  0  0  0  0
    8.5693    3.2781   -0.9996 H   0  0  0  0  0  0  0  0  0  0  0  0
   10.5031    4.3986   -1.4716 H   0  0  0  0  0  0  0  0  0  0  0  0
   12.3494    1.4475   -1.8981 H   0  0  0  0  0  0  0  0  0  0  0  0
   12.3933   -0.7750   -1.9065 H   0  0  0  0  0  0  0  0  0  0  0  0
    7.3342   -3.1803   -0.8859 H   0  0  0  0  0  0  0  0  0  0  0  0
  1  2  1  0  0  0  0
  1 22  1  0  0  0  0
  2  3  2  0  0  0  0
  2  7  1  0  0  0  0
  3  4  1  0  0  0  0
  3 23  1  0  0  0  0
  4  5  2  0  0  0  0
  4 24  1  0  0  0  0
  5  6  1  0  0  0  0
  5  8  1  0  0  0  0
  6  7  2  0  0  0  0
  6 25  1  0  0  0  0
  7 26  1  0  0  0  0
  8  9  1  0  0  0  0
  8 20  2  0  0  0  0
  9 10  1  0  0  0  0
 10 11  2  0  0  0  0
 10 17  1  0  0  0  0
 11 12  1  0  0  0  0
 11 27  1  0  0  0  0
 12 13  1  0  0  0  0
 12 14  2  0  0  0  0
 13 28  1  0  0  0  0
 14 15  1  0  0  0  0
 14 29  1  0  0  0  0
 15 16  1  0  0  0  0
 15 17  2  0  0  0  0
 16 30  1  0  0  0  0
 17 18  1  0  0  0  0
 18 19  2  0  0  0  0
 18 20  1  0  0  0  0
 20 21  1  0  0  0  0
 21 31  1  0  0  0  0
M  END
$$$$

 OpenBabel12201709243D

 23 24  0  0  1  0  0  0  0  0999 V2000
    2.5129    0.0534   -1.3104 O   0  0  0  0  0  0  0  0  0  0  0  0
    2.5059   -0.0006    0.1126 C   0  0  3  0  0  0  0  0  0  0  0  0
    1.1082    0.3129    0.5708 C   0  0  0  0  0  0  0  0  0  0  0  0
    0.7649    1.3470    1.3516 C   0  0  0  0  0  0  0  0  0  0  0  0
    2.9883   -1.3700    0.5444 C   0  0  0  0  0  0  0  0  0  0  0  0
    2.3300   -2.5457    0.1038 C   0  0  0  0  0  0  0  0  0  0  0  0
    2.7615   -3.8159    0.5040 C   0  0  0  0  0  0  0  0  0  0  0  0
    3.8573   -3.8857    1.3324 C   0  0  0  0  0  0  0  0  0  0  0  0
    4.4154   -5.0275    1.8171 O   0  0  0  0  0  0  0  0  0  0  0  0
    5.4938   -4.4860    2.6067 C   0  0  0  0  0  0  0  0  0  0  0  0
    5.5761   -3.0460    2.5591 O   0  0  0  0  0  0  0  0  0  0  0  0
    4.5158   -2.7567    1.7574 C   0  0  0  0  0  0  0  0  0  0  0  0
    4.1103   -1.4908    1.3851 C   0  0  0  0  0  0  0  0  0  0  0  0
    2.1122    0.9043   -1.5533 H   0  0  0  0  0  0  0  0  0  0  0  0
    3.2054    0.7671    0.4653 H   0  0  0  0  0  0  0  0  0  0  0  0
    0.3225   -0.3534    0.2198 H   0  0  0  0  0  0  0  0  0  0  0  0
    1.4995    2.0494    1.7322 H   0  0  0  0  0  0  0  0  0  0  0  0
   -0.2735    1.5072    1.6295 H   0  0  0  0  0  0  0  0  0  0  0  0
    1.4767   -2.4662   -0.5657 H   0  0  0  0  0  0  0  0  0  0  0  0
    2.2539   -4.7126    0.1676 H   0  0  0  0  0  0  0  0  0  0  0  0
    6.4390   -4.9057    2.2437 H   0  0  0  0  0  0  0  0  0  0  0  0
    5.3512   -4.7929    3.6493 H   0  0  0  0  0  0  0  0  0  0  0  0
    4.6560   -0.6212    1.7344 H   0  0  0  0  0  0  0  0  0  0  0  0
  1  2  1  0  0  0  0
  1 14  1  0  0  0  0
  2  3  1  0  0  0  0
  2  5  1  0  0  0  0
  2 15  1  0  0  0  0
  3  4  2  0  0  0  0
  3 16  1  0  0  0  0
  4 17  1  0  0  0  0
  4 18  1  0  0  0  0
  5  6  2  0  0  0  0
  5 13  1  0  0  0  0
  6  7  1  0  0  0  0
  6 19  1  0  0  0  0
  7  8  2  0  0  0  0
  7 20  1  0  0  0  0
  8  9  1  0  0  0  0
  8 12  1  0  0  0  0
  9 10  1  0  0  0  0
 10 11  1  0  0  0  0
 10 21  1  0  0  0  0
 10 22  1  0  0  0  0
 11 12  1  0  0  0  0
 12 13  2  0  0  0  0
 13 23  1  0  0  0  0
M  END
$$$$

 OpenBabel12201709243D

 52 55  0  0  1  0  0  0  0  0999 V2000
    2.5824    0.8996    3.7058 C   0  0  0  0  0  0  0  0  0  0  0  0
    3.3636    0.4414    2.4346 C   0  0  3  0  0  0  0  0  0  0  0  0
    2.4482   -0.5719    1.7169 C   0  0  0  0  0  0  0  0  0  0  0  0
    2.5657   -1.9011    2.4496 C   0  0  0  0  0  0  0  0  0  0  0  0
    1.6298   -2.4150    3.0501 O   0  0  0  0  0  0  0  0  0  0  0  0
    3.9978   -2.4190    2.4733 C   0  0  3  0  0  0  0  0  0  0  0  0
    4.7859   -1.5352    3.4800 C   0  0  3  0  0  0  0  0  0  0  0  0
    6.2049   -2.0831    3.6451 C   0  0  0  0  0  0  0  0  0  0  0  0
    6.1763   -3.5499    4.0599 C   0  0  0  0  0  0  0  0  0  0  0  0
    5.5120   -4.4432    3.0404 C   0  0  0  0  0  0  0  0  0  0  0  0
    6.2261   -5.4744    2.5345 C   0  0  0  0  0  0  0  0  0  0  0  0
    6.8503   -4.9939    1.2486 C   0  0  0  0  0  0  0  0  0  0  0  0
    8.0224   -5.1969    0.9718 O   0  0  0  0  0  0  0  0  0  0  0  0
    5.9176   -4.3479    0.2956 C   0  0  0  0  0  0  0  0  0  0  0  0
    4.7035   -3.9741    0.7284 C   0  0  0  0  0  0  0  0  0  0  0  0
    4.3050   -3.9267    2.2399 C   0  0  3  0  0  0  0  0  0  0  0  0
    3.1238   -4.8918    2.4446 C   0  0  0  0  0  0  0  0  0  0  0  0
    4.7786   -0.1344    2.8124 C   0  0  3  0  0  0  0  0  0  0  0  0
    5.5543    1.0969    3.2997 C   0  0  0  0  0  0  0  0  0  0  0  0
    4.8728    2.2918    2.5482 C   0  0  0  0  0  0  0  0  0  0  0  0
    3.8837    1.6333    1.5601 C   0  0  3  0  0  0  0  0  0  0  0  0
    4.6918    1.1435    0.4609 O   0  0  0  0  0  0  0  0  0  0  0  0
    2.8564    2.5425    0.8904 C   0  0  0  0  0  0  0  0  0  0  0  0
    1.6756    2.6066    1.2459 O   0  0  0  0  0  0  0  0  0  0  0  0
    3.3152    3.3055   -0.3582 C   0  0  0  0  0  0  0  0  0  0  0  0
    2.3029    4.1429   -0.8942 O   0  0  0  0  0  0  0  0  0  0  0  0
    2.0467    0.0660    4.1768 H   0  0  0  0  0  0  0  0  0  0  0  0
    1.8263    1.6508    3.4638 H   0  0  0  0  0  0  0  0  0  0  0  0
    3.2211    1.3195    4.4873 H   0  0  0  0  0  0  0  0  0  0  0  0
    2.7349   -0.7499    0.6768 H   0  0  0  0  0  0  0  0  0  0  0  0
    1.4002   -0.2511    1.7043 H   0  0  0  0  0  0  0  0  0  0  0  0
    4.3401   -2.0039    1.5165 H   0  0  0  0  0  0  0  0  0  0  0  0
    4.2869   -1.4967    4.4565 H   0  0  0  0  0  0  0  0  0  0  0  0
    6.7518   -1.4993    4.3942 H   0  0  0  0  0  0  0  0  0  0  0  0
    6.7630   -1.9857    2.7040 H   0  0  0  0  0  0  0  0  0  0  0  0
    5.6562   -3.6608    5.0180 H   0  0  0  0  0  0  0  0  0  0  0  0
    7.2109   -3.8794    4.2288 H   0  0  0  0  0  0  0  0  0  0  0  0
    5.6547   -6.3352    2.1538 H   0  0  0  0  0  0  0  0  0  0  0  0
    6.2631   -4.2110   -0.7234 H   0  0  0  0  0  0  0  0  0  0  0  0
    4.0083   -3.5388    0.0116 H   0  0  0  0  0  0  0  0  0  0  0  0
    2.1596   -4.4669    2.1597 H   0  0  0  0  0  0  0  0  0  0  0  0
    3.0515   -5.2258    3.4859 H   0  0  0  0  0  0  0  0  0  0  0  0
    3.2300   -5.7905    1.8228 H   0  0  0  0  0  0  0  0  0  0  0  0
    5.3142   -0.3611    1.8781 H   0  0  0  0  0  0  0  0  0  0  0  0
    6.6062    1.0275    2.9994 H   0  0  0  0  0  0  0  0  0  0  0  0
    5.5205    1.2291    4.3836 H   0  0  0  0  0  0  0  0  0  0  0  0
    5.6196    2.9140    2.0442 H   0  0  0  0  0  0  0  0  0  0  0  0
    4.3408    2.9302    3.2660 H   0  0  0  0  0  0  0  0  0  0  0  0
    4.2143    0.4459   -0.0157 H   0  0  0  0  0  0  0  0  0  0  0  0
    3.5751    2.5801   -1.1386 H   0  0  0  0  0  0  0  0  0  0  0  0
    4.1861    3.9121   -0.1179 H   0  0  0  0  0  0  0  0  0  0  0  0
    1.4497    3.7189   -0.6773 H   0  0  0  0  0  0  0  0  0  0  0  0
  1  2  1  0  0  0  0
  1 27  1  0  0  0  0
  1 28  1  0  0  0  0
  1 29  1  0  0  0  0
  2  3  1  0  0  0  0
  2 18  1  0  0  0  0
  2 21  1  0  0  0  0
  3  4  1  0  0  0  0
  3 30  1  0  0  0  0
  3 31  1  0  0  0  0
  4  5  2  0  0  0  0
  4  6  1  0  0  0  0
  6  7  1  0  0  0  0
  6 16  1  0  0  0  0
  6 32  1  0  0  0  0
  7  8  1  0  0  0  0
  7 18  1  0  0  0  0
  7 33  1  0  0  0  0
  8  9  1  0  0  0  0
  8 34  1  0  0  0  0
  8 35  1  0  0  0  0
  9 10  1  0  0  0  0
  9 36  1  0  0  0  0
  9 37  1  0  0  0  0
 10 11  2  0  0  0  0
 10 16  1  0  0  0  0
 11 12  1  0  0  0  0
 11 38  1  0  0  0  0
 12 13  2  0  0  0  0
 12 14  1  0  0  0  0
 14 15  2  0  0  0  0
 14 39  1  0  0  0  0
 15 16  1  0  0  0  0
 15 40  1  0  0  0  0
 16 17  1  0  0  0  0
 17 41  1  0  0  0  0
 17 42  1  0  0  0  0
 17 43  1  0  0  0  0
 18 19  1  0  0  0  0
 18 44  1  0  0  0  0
 19 20  1  0  0  0  0
 19 45  1  0  0  0  0
 19 46  1  0  0  0  0
 20 21  1  0  0  0  0
 20 47  1  0  0  0  0
 20 48  1  0  0  0  0
 21 22  1  0  0  0  0
 21 23  1  0  0  0  0
 22 49  1  0  0  0  0
 23 24  2  0  0  0  0
 23 25  1  0  0  0  0
 25 26  1  0  0  0  0
 25 50  1  0  0  0  0
 25 51  1  0  0  0  0
 26 52  1  0  0  0  0
M  END
$$$$

 OpenBabel12201709243D

 28 29  0  0  1  0  0  0  0  0999 V2000
    2.8263   -1.6646    0.5476 Cl  0  0  0  0  0  0  0  0  0  0  0  0
    2.6043   -0.0437   -0.1923 C   0  0  0  0  0  0  0  0  0  0  0  0
    0.8517    0.1792   -0.5209 Cl  0  0  0  0  0  0  0  0  0  0  0  0
    3.2280    1.1314    0.6329 C   0  0  3  0  0  0  0  0  0  0  0  0
    2.6265    1.2034    2.0482 C   0  0  0  0  0  0  0  0  0  0  0  0
    3.2129    0.5439    3.1401 C   0  0  0  0  0  0  0  0  0  0  0  0
    2.6564    0.6464    4.4172 C   0  0  0  0  0  0  0  0  0  0  0  0
    1.4976    1.3935    4.6126 C   0  0  0  0  0  0  0  0  0  0  0  0
    0.8061    1.5022    6.1834 Cl  0  0  0  0  0  0  0  0  0  0  0  0
    0.8951    2.0454    3.5441 C   0  0  0  0  0  0  0  0  0  0  0  0
    1.4579    1.9558    2.2685 C   0  0  0  0  0  0  0  0  0  0  0  0
    4.7749    1.2314    0.6102 C   0  0  0  0  0  0  0  0  0  0  0  0
    5.5694    0.2683   -0.0476 C   0  0  0  0  0  0  0  0  0  0  0  0
    6.9673    0.3237   -0.0247 C   0  0  0  0  0  0  0  0  0  0  0  0
    7.6156    1.3430    0.6565 C   0  0  0  0  0  0  0  0  0  0  0  0
    6.8644    2.3352    1.2761 C   0  0  0  0  0  0  0  0  0  0  0  0
    5.4631    2.3001    1.2322 C   0  0  0  0  0  0  0  0  0  0  0  0
    4.6523    3.6547    1.9429 Cl  0  0  0  0  0  0  0  0  0  0  0  0
    3.0591   -0.0890   -1.1857 H   0  0  0  0  0  0  0  0  0  0  0  0
    2.9165    2.0477    0.1060 H   0  0  0  0  0  0  0  0  0  0  0  0
    4.1205   -0.0435    3.0157 H   0  0  0  0  0  0  0  0  0  0  0  0
    3.1337    0.1447    5.2543 H   0  0  0  0  0  0  0  0  0  0  0  0
   -0.0146    2.6234    3.6921 H   0  0  0  0  0  0  0  0  0  0  0  0
    0.9752    2.4881    1.4516 H   0  0  0  0  0  0  0  0  0  0  0  0
    5.1394   -0.5625   -0.5996 H   0  0  0  0  0  0  0  0  0  0  0  0
    7.5471   -0.4410   -0.5375 H   0  0  0  0  0  0  0  0  0  0  0  0
    8.7016    1.3744    0.6926 H   0  0  0  0  0  0  0  0  0  0  0  0
    7.3765    3.1436    1.7924 H   0  0  0  0  0  0  0  0  0  0  0  0
  1  2  1  0  0  0  0
  2  3  1  0  0  0  0
  2  4  1  0  0  0  0
  2 19  1  0  0  0  0
  4  5  1  0  0  0  0
  4 12  1  0  0  0  0
  4 20  1  0  0  0  0
  5  6  2  0  0  0  0
  5 11  1  0  0  0  0
  6  7  1  0  0  0  0
  6 21  1  0  0  0  0
  7  8  2  0  0  0  0
  7 22  1  0  0  0  0
  8  9  1  0  0  0  0
  8 10  1  0  0  0  0
 10 11  2  0  0  0  0
 10 23  1  0  0  0  0
 11 24  1  0  0  0  0
 12 13  2  0  0  0  0
 12 17  1  0  0  0  0
 13 14  1  0  0  0  0
 13 25  1  0  0  0  0
 14 15  2  0  0  0  0
 14 26  1  0  0  0  0
 15 16  1  0  0  0  0
 15 27  1  0  0  0  0
 16 17  2  0  0  0  0
 16 28  1  0  0  0  0
 17 18  1  0  0  0  0
M  END
$$$$

 OpenBabel12201709243D

 36 40  0  0  0  0  0  0  0  0999 V2000
    5.7106    0.5047   -0.0019 C   0  0  0  0  0  0  0  0  0  0  0  0
    4.9430    1.6586   -0.0015 C   0  0  0  0  0  0  0  0  0  0  0  0
    3.5481    1.5669   -0.0004 C   0  0  0  0  0  0  0  0  0  0  0  0
    2.8715    0.3209    0.0005 C   0  0  0  0  0  0  0  0  0  0  0  0
    3.6818   -0.8431    0.0003 C   0  0  0  0  0  0  0  0  0  0  0  0
    5.0833   -0.7381   -0.0007 C   0  0  0  0  0  0  0  0  0  0  0  0
    3.0854   -2.1061    0.0009 C   0  0  0  0  0  0  0  0  0  0  0  0
    1.7001   -2.2382    0.0016 C   0  0  0  0  0  0  0  0  0  0  0  0
    0.8704   -1.1123    0.0017 C   0  0  0  0  0  0  0  0  0  0  0  0
   -0.5281   -1.2766    0.0022 C   0  0  0  0  0  0  0  0  0  0  0  0
   -1.4368   -0.1917    0.0022 C   0  0  0  0  0  0  0  0  0  0  0  0
   -0.8684    1.0993    0.0024 C   0  0  0  0  0  0  0  0  0  0  0  0
   -1.6957    2.2265    0.0026 C   0  0  0  0  0  0  0  0  0  0  0  0
   -3.0810    2.0966    0.0021 C   0  0  0  0  0  0  0  0  0  0  0  0
   -3.6788    0.8346    0.0012 C   0  0  0  0  0  0  0  0  0  0  0  0
   -5.0802    0.7329   -0.0004 C   0  0  0  0  0  0  0  0  0  0  0  0
   -5.7104   -0.5085   -0.0017 C   0  0  0  0  0  0  0  0  0  0  0  0
   -4.9449   -1.6642   -0.0011 C   0  0  0  0  0  0  0  0  0  0  0  0
   -3.5500   -1.5757    0.0005 C   0  0  0  0  0  0  0  0  0  0  0  0
   -2.8707   -0.3312    0.0015 C   0  0  0  0  0  0  0  0  0  0  0  0
    0.5295    1.2634    0.0021 C   0  0  0  0  0  0  0  0  0  0  0  0
    1.4380    0.1790    0.0015 C   0  0  0  0  0  0  0  0  0  0  0  0
    6.7950    0.5693   -0.0024 H   0  0  0  0  0  0  0  0  0  0  0  0
    5.4209    2.6346   -0.0024 H   0  0  0  0  0  0  0  0  0  0  0  0
    2.9954    2.5016   -0.0006 H   0  0  0  0  0  0  0  0  0  0  0  0
    5.7018   -1.6331   -0.0008 H   0  0  0  0  0  0  0  0  0  0  0  0
    3.6953   -3.0070    0.0008 H   0  0  0  0  0  0  0  0  0  0  0  0
    1.2739   -3.2397    0.0021 H   0  0  0  0  0  0  0  0  0  0  0  0
   -0.9116   -2.2936    0.0021 H   0  0  0  0  0  0  0  0  0  0  0  0
   -1.2680    3.2271    0.0034 H   0  0  0  0  0  0  0  0  0  0  0  0
   -3.6894    2.9985    0.0018 H   0  0  0  0  0  0  0  0  0  0  0  0
   -5.6969    1.6294   -0.0012 H   0  0  0  0  0  0  0  0  0  0  0  0
   -6.7948   -0.5704   -0.0034 H   0  0  0  0  0  0  0  0  0  0  0  0
   -5.4257   -2.6387   -0.0019 H   0  0  0  0  0  0  0  0  0  0  0  0
   -2.9991   -2.5115    0.0011 H   0  0  0  0  0  0  0  0  0  0  0  0
    0.9130    2.2804    0.0026 H   0  0  0  0  0  0  0  0  0  0  0  0
  1  2  2  0  0  0  0
  1  6  1  0  0  0  0
  1 23  1  0  0  0  0
  2  3  1  0  0  0  0
  2 24  1  0  0  0  0
  3  4  2  0  0  0  0
  3 25  1  0  0  0  0
  4  5  1  0  0  0  0
  4 22  1  0  0  0  0
  5  6  2  0  0  0  0
  5  7  1  0  0  0  0
  6 26  1  0  0  0  0
  7  8  2  0  0  0  0
  7 27  1  0  0  0  0
  8  9  1  0  0  0  0
  8 28  1  0  0  0  0
  9 10  2  0  0  0  0
  9 22  1  0  0  0  0
 10 11  1  0  0  0  0
 10 29  1  0  0  0  0
 11 12  2  0  0  0  0
 11 20  1  0  0  0  0
 12 13  1  0  0  0  0
 12 21  1  0  0  0  0
 13 14  2  0  0  0  0
 13 30  1  0  0  0  0
 14 15  1  0  0  0  0
 14 31  1  0  0  0  0
 15 16  2  0  0  0  0
 15 20  1  0  0  0  0
 16 17  1  0  0  0  0
 16 32  1  0  0  0  0
 17 18  2  0  0  0  0
 17 33  1  0  0  0  0
 18 19  1  0  0  0  0
 18 34  1  0  0  0  0
 19 20  2  0  0  0  0
 19 35  1  0  0  0  0
 21 22  2  0  0  0  0
 21 36  1  0  0  0  0
M  END
$$$$

 OpenBabel12201709243D

 31 33  0  0  0  0  0  0  0  0999 V2000
    1.1875   -0.6597   -0.5807 C   0  0  0  0  0  0  0  0  0  0  0  0
    2.6651   -0.3480   -0.5408 C   0  0  0  0  0  0  0  0  0  0  0  0
    3.1539    0.4343   -1.3604 O   0  0  0  0  0  0  0  0  0  0  0  0
    3.3673   -0.9925    0.4683 N   0  0  0  0  0  0  0  0  0  0  0  0
    2.6979   -2.0238    1.1644 O   0  0  0  0  0  0  0  0  0  0  0  0
    4.7812   -1.0300    0.5365 C   0  0  0  0  0  0  0  0  0  0  0  0
    5.4532   -2.2631    0.6845 C   0  0  0  0  0  0  0  0  0  0  0  0
    6.8547   -2.3331    0.6948 C   0  0  0  0  0  0  0  0  0  0  0  0
    7.5756   -1.1547    0.6156 C   0  0  0  0  0  0  0  0  0  0  0  0
    6.9013    0.0837    0.5273 C   0  0  0  0  0  0  0  0  0  0  0  0
    7.8960    1.2248    0.5272 C   0  0  0  0  0  0  0  0  0  0  0  0
    9.2186    0.4915    0.5571 C   0  0  0  0  0  0  0  0  0  0  0  0
   10.4950    1.0325    0.5357 C   0  0  0  0  0  0  0  0  0  0  0  0
   11.5796    0.1477    0.5446 C   0  0  0  0  0  0  0  0  0  0  0  0
   11.3724   -1.2389    0.5727 C   0  0  0  0  0  0  0  0  0  0  0  0
   10.0792   -1.7787    0.6046 C   0  0  0  0  0  0  0  0  0  0  0  0
    9.0022   -0.9065    0.6011 C   0  0  0  0  0  0  0  0  0  0  0  0
    5.5192    0.1568    0.4596 C   0  0  0  0  0  0  0  0  0  0  0  0
    0.7445   -0.2181   -1.4781 H   0  0  0  0  0  0  0  0  0  0  0  0
    0.7008   -0.2339    0.3006 H   0  0  0  0  0  0  0  0  0  0  0  0
    1.0166   -1.7392   -0.6223 H   0  0  0  0  0  0  0  0  0  0  0  0
    2.3618   -1.5231    1.9339 H   0  0  0  0  0  0  0  0  0  0  0  0
    4.8842   -3.1881    0.7277 H   0  0  0  0  0  0  0  0  0  0  0  0
    7.3539   -3.2961    0.7488 H   0  0  0  0  0  0  0  0  0  0  0  0
    7.7781    1.8388    1.4261 H   0  0  0  0  0  0  0  0  0  0  0  0
    7.8035    1.8223   -0.3857 H   0  0  0  0  0  0  0  0  0  0  0  0
   10.6509    2.1072    0.5051 H   0  0  0  0  0  0  0  0  0  0  0  0
   12.5917    0.5423    0.5196 H   0  0  0  0  0  0  0  0  0  0  0  0
   12.2323   -1.9076    0.5662 H   0  0  0  0  0  0  0  0  0  0  0  0
    9.9346   -2.8542    0.6182 H   0  0  0  0  0  0  0  0  0  0  0  0
    5.0256    1.1219    0.3718 H   0  0  0  0  0  0  0  0  0  0  0  0
  1  2  1  0  0  0  0
  1 19  1  0  0  0  0
  1 20  1  0  0  0  0
  1 21  1  0  0  0  0
  2  3  2  0  0  0  0
  2  4  1  0  0  0  0
  4  5  1  0  0  0  0
  4  6  1  0  0  0  0
  5 22  1  0  0  0  0
  6  7  2  0  0  0  0
  6 18  1  0  0  0  0
  7  8  1  0  0  0  0
  7 23  1  0  0  0  0
  8  9  2  0  0  0  0
  8 24  1  0  0  0  0
  9 10  1  0  0  0  0
  9 17  1  0  0  0  0
 10 11  1  0  0  0  0
 10 18  2  0  0  0  0
 11 12  1  0  0  0  0
 11 25  1  0  0  0  0
 11 26  1  0  0  0  0
 12 13  2  0  0  0  0
 12 17  1  0  0  0  0
 13 14  1  0  0  0  0
 13 27  1  0  0  0  0
 14 15  2  0  0  0  0
 14 28  1  0  0  0  0
 15 16  1  0  0  0  0
 15 29  1  0  0  0  0
 16 17  2  0  0  0  0
 16 30  1  0  0  0  0
 18 31  1  0  0  0  0
M  END
$$$$

 OpenBabel12201709243D

 30 32  0  0  0  0  0  0  0  0999 V2000
    1.0649   -0.4822    0.6621 C   0  0  0  0  0  0  0  0  0  0  0  0
    2.5556   -0.4379    0.8546 C   0  0  0  0  0  0  0  0  0  0  0  0
    3.0487    0.0741    1.8567 O   0  0  0  0  0  0  0  0  0  0  0  0
    3.2524   -1.0084   -0.1966 N   0  0  0  0  0  0  0  0  0  0  0  0
    4.6534   -1.1584   -0.2061 C   0  0  0  0  0  0  0  0  0  0  0  0
    5.3270   -1.0137   -1.4327 C   0  0  0  0  0  0  0  0  0  0  0  0
    6.7270   -1.0535   -1.4936 C   0  0  0  0  0  0  0  0  0  0  0  0
    7.4316   -1.2989   -0.3274 C   0  0  0  0  0  0  0  0  0  0  0  0
    6.7472   -1.5281    0.8830 C   0  0  0  0  0  0  0  0  0  0  0  0
    7.7276   -1.8387    1.9938 C   0  0  0  0  0  0  0  0  0  0  0  0
    9.0603   -1.6902    1.2844 C   0  0  0  0  0  0  0  0  0  0  0  0
   10.3290   -1.8181    1.8179 C   0  0  0  0  0  0  0  0  0  0  0  0
   11.4183   -1.5957    0.9718 C   0  0  0  0  0  0  0  0  0  0  0  0
   11.2237   -1.2542   -0.3749 C   0  0  0  0  0  0  0  0  0  0  0  0
    9.9346   -1.1383   -0.9105 C   0  0  0  0  0  0  0  0  0  0  0  0
    8.8537   -1.3658   -0.0763 C   0  0  0  0  0  0  0  0  0  0  0  0
    5.3668   -1.4481    0.9618 C   0  0  0  0  0  0  0  0  0  0  0  0
    0.5912    0.2297    1.3451 H   0  0  0  0  0  0  0  0  0  0  0  0
    0.7068   -1.4894    0.8901 H   0  0  0  0  0  0  0  0  0  0  0  0
    0.7907   -0.2102   -0.3613 H   0  0  0  0  0  0  0  0  0  0  0  0
    2.7783   -1.0642   -1.0894 H   0  0  0  0  0  0  0  0  0  0  0  0
    4.7740   -0.8053   -2.3444 H   0  0  0  0  0  0  0  0  0  0  0  0
    7.2389   -0.8758   -2.4327 H   0  0  0  0  0  0  0  0  0  0  0  0
    7.5933   -2.8643    2.3528 H   0  0  0  0  0  0  0  0  0  0  0  0
    7.6377   -1.1119    2.8068 H   0  0  0  0  0  0  0  0  0  0  0  0
   10.4791   -2.0729    2.8600 H   0  0  0  0  0  0  0  0  0  0  0  0
   12.4297   -1.6772    1.3638 H   0  0  0  0  0  0  0  0  0  0  0  0
   12.0847   -1.0700   -1.0120 H   0  0  0  0  0  0  0  0  0  0  0  0
    9.7951   -0.8635   -1.9505 H   0  0  0  0  0  0  0  0  0  0  0  0
    4.8645   -1.6071    1.9126 H   0  0  0  0  0  0  0  0  0  0  0  0
  1  2  1  0  0  0  0
  1 18  1  0  0  0  0
  1 19  1  0  0  0  0
  1 20  1  0  0  0  0
  2  3  2  0  0  0  0
  2  4  1  0  0  0  0
  4  5  1  0  0  0  0
  4 21  1  0  0  0  0
  5  6  2  0  0  0  0
  5 17  1  0  0  0  0
  6  7  1  0  0  0  0
  6 22  1  0  0  0  0
  7  8  2  0  0  0  0
  7 23  1  0  0  0  0
  8  9  1  0  0  0  0
  8 16  1  0  0  0  0
  9 10  1  0  0  0  0
  9 17  2  0  0  0  0
 10 11  1  0  0  0  0
 10 24  1  0  0  0  0
 10 25  1  0  0  0  0
 11 12  2  0  0  0  0
 11 16  1  0  0  0  0
 12 13  1  0  0  0  0
 12 26  1  0  0  0  0
 13 14  2  0  0  0  0
 13 27  1  0  0  0  0
 14 15  1  0  0  0  0
 14 28  1  0  0  0  0
 15 16  2  0  0  0  0
 15 29  1  0  0  0  0
 17 30  1  0  0  0  0
M  END
$$$$

 OpenBabel12201709243D

 19 19  0  0  0  0  0  0  0  0999 V2000
    1.1338    0.0496    0.2364 N   0  0  0  0  0  0  0  0  0  0  0  0
    2.5038    0.0296   -0.0461 C   0  0  0  0  0  0  0  0  0  0  0  0
    3.2494    1.2067    0.0158 C   0  0  0  0  0  0  0  0  0  0  0  0
    4.6407    1.1832   -0.1291 C   0  0  0  0  0  0  0  0  0  0  0  0
    5.3216   -0.0198   -0.3334 C   0  0  0  0  0  0  0  0  0  0  0  0
    6.7276   -0.0154   -0.3198 N   0  0  0  0  0  0  0  0  0  0  0  0
    4.5813   -1.2111   -0.2897 C   0  0  0  0  0  0  0  0  0  0  0  0
    3.1822   -1.1859   -0.1510 C   0  0  0  0  0  0  0  0  0  0  0  0
    5.2511   -2.4905   -0.4379 N   0  0  0  0  0  0  0  0  0  0  0  0
    6.2268   -2.5758   -1.1583 O   0  0  0  0  0  0  0  0  0  0  0  0
    4.7792   -3.6369    0.1914 O   0  0  0  0  0  0  0  0  0  0  0  0
    0.6809    0.9309    0.0111 H   0  0  0  0  0  0  0  0  0  0  0  0
    0.6160   -0.7441   -0.1274 H   0  0  0  0  0  0  0  0  0  0  0  0
    2.7557    2.1605    0.1860 H   0  0  0  0  0  0  0  0  0  0  0  0
    5.1910    2.1191   -0.0654 H   0  0  0  0  0  0  0  0  0  0  0  0
    7.1398    0.8184   -0.7255 H   0  0  0  0  0  0  0  0  0  0  0  0
    7.1043   -0.8677   -0.7514 H   0  0  0  0  0  0  0  0  0  0  0  0
    2.6091   -2.1096   -0.1395 H   0  0  0  0  0  0  0  0  0  0  0  0
    4.1549   -3.2767    0.8352 H   0  0  0  0  0  0  0  0  0  0  0  0
  1  2  1  0  0  0  0
  1 12  1  0  0  0  0
  1 13  1  0  0  0  0
  2  3  2  0  0  0  0
  2  8  1  0  0  0  0
  3  4  1  0  0  0  0
  3 14  1  0  0  0  0
  4  5  2  0  0  0  0
  4 15  1  0  0  0  0
  5  6  1  0  0  0  0
  5  7  1  0  0  0  0
  6 16  1  0  0  0  0
  6 17  1  0  0  0  0
  7  8  2  0  0  0  0
  7  9  1  0  0  0  0
  8 18  1  0  0  0  0
  9 10  2  0  0  0  0
  9 11  1  0  0  0  0
 11 19  1  0  0  0  0
M  END
$$$$

 OpenBabel12201709243D

 25 26  0  0  0  0  0  0  0  0999 V2000
    1.0493    0.2297    0.1706 C   0  0  0  0  0  0  0  0  0  0  0  0
    2.5207   -0.0832    0.2550 C   0  0  0  0  0  0  0  0  0  0  0  0
    2.8897   -1.1967    0.6115 O   0  0  0  0  0  0  0  0  0  0  0  0
    3.3135    0.9961   -0.0801 N   0  0  0  0  0  0  0  0  0  0  0  0
    4.6889    0.9959   -0.1235 C   0  0  0  0  0  0  0  0  0  0  0  0
    5.3965    2.1052   -0.1888 N   0  0  0  0  0  0  0  0  0  0  0  0
    6.7456    1.7789   -0.1879 C   0  0  0  0  0  0  0  0  0  0  0  0
    7.0285    0.4296   -0.1915 C   0  0  0  0  0  0  0  0  0  0  0  0
    5.5791   -0.4613   -0.1665 S   0  0  0  0  0  0  0  0  0  0  0  0
    7.8543    2.7770   -0.1712 C   0  0  0  0  0  0  0  0  0  0  0  0
    7.7541    4.1528   -0.1450 C   0  0  0  0  0  0  0  0  0  0  0  0
    9.0816    4.6580   -0.1179 C   0  0  0  0  0  0  0  0  0  0  0  0
    9.9244    3.5627   -0.1304 C   0  0  0  0  0  0  0  0  0  0  0  0
    9.1762    2.4199   -0.1643 O   0  0  0  0  0  0  0  0  0  0  0  0
   11.3325    3.5663   -0.1116 N   0  0  0  0  0  0  0  0  0  0  0  0
   11.9357    4.6177   -0.0824 O   0  0  0  0  0  0  0  0  0  0  0  0
   12.0173    2.3616   -0.1224 O   0  0  0  0  0  0  0  0  0  0  0  0
    0.4763   -0.6545    0.4694 H   0  0  0  0  0  0  0  0  0  0  0  0
    0.7801    0.4865   -0.8570 H   0  0  0  0  0  0  0  0  0  0  0  0
    0.7980    1.0508    0.8463 H   0  0  0  0  0  0  0  0  0  0  0  0
    2.8982    1.9117   -0.1777 H   0  0  0  0  0  0  0  0  0  0  0  0
    7.9922   -0.0583   -0.1970 H   0  0  0  0  0  0  0  0  0  0  0  0
    6.8363    4.7254   -0.1393 H   0  0  0  0  0  0  0  0  0  0  0  0
    9.3986    5.6930   -0.0893 H   0  0  0  0  0  0  0  0  0  0  0  0
   11.2843    1.7259   -0.1419 H   0  0  0  0  0  0  0  0  0  0  0  0
  1  2  1  0  0  0  0
  1 18  1  0  0  0  0
  1 19  1  0  0  0  0
  1 20  1  0  0  0  0
  2  3  2  0  0  0  0
  2  4  1  0  0  0  0
  4  5  1  0  0  0  0
  4 21  1  0  0  0  0
  5  6  2  0  0  0  0
  5  9  1  0  0  0  0
  6  7  1  0  0  0  0
  7  8  2  0  0  0  0
  7 10  1  0  0  0  0
  8  9  1  0  0  0  0
  8 22  1  0  0  0  0
 10 11  2  0  0  0  0
 10 14  1  0  0  0  0
 11 12  1  0  0  0  0
 11 23  1  0  0  0  0
 12 13  2  0  0  0  0
 12 24  1  0  0  0  0
 13 14  1  0  0  0  0
 13 15  1  0  0  0  0
 15 16  2  0  0  0  0
 15 17  1  0  0  0  0
 17 25  1  0  0  0  0
M  END
$$$$

 OpenBabel12201709243D

 26 27  0  0  0  0  0  0  0  0999 V2000
    1.0108   -0.0532    0.4094 N   0  0  0  0  0  0  0  0  0  0  0  0
    2.3785   -0.0200    0.1148 C   0  0  0  0  0  0  0  0  0  0  0  0
    3.0559    1.1945    0.0490 C   0  0  0  0  0  0  0  0  0  0  0  0
    4.4391    1.2323   -0.1724 C   0  0  0  0  0  0  0  0  0  0  0  0
    5.2024    0.0566   -0.2810 C   0  0  0  0  0  0  0  0  0  0  0  0
    4.5161   -1.1572   -0.1036 C   0  0  0  0  0  0  0  0  0  0  0  0
    3.1292   -1.1934    0.1042 C   0  0  0  0  0  0  0  0  0  0  0  0
    6.6515    0.1015   -0.6024 C   0  0  0  0  0  0  0  0  0  0  0  0
    7.4731    1.1626   -0.1843 C   0  0  0  0  0  0  0  0  0  0  0  0
    8.8170    1.2499   -0.5726 C   0  0  0  0  0  0  0  0  0  0  0  0
    9.3776    0.2943   -1.4157 C   0  0  0  0  0  0  0  0  0  0  0  0
   10.7399    0.3370   -1.7336 N   0  0  0  0  0  0  0  0  0  0  0  0
    8.6105   -0.8193   -1.7494 C   0  0  0  0  0  0  0  0  0  0  0  0
    7.2627   -0.9027   -1.3731 C   0  0  0  0  0  0  0  0  0  0  0  0
    0.5103    0.7722    0.0944 H   0  0  0  0  0  0  0  0  0  0  0  0
    0.5555   -0.9098    0.1092 H   0  0  0  0  0  0  0  0  0  0  0  0
    2.5132    2.1309    0.1467 H   0  0  0  0  0  0  0  0  0  0  0  0
    4.9071    2.2081   -0.2777 H   0  0  0  0  0  0  0  0  0  0  0  0
    5.0525   -2.1033   -0.1174 H   0  0  0  0  0  0  0  0  0  0  0  0
    2.6431   -2.1549    0.2456 H   0  0  0  0  0  0  0  0  0  0  0  0
    7.0801    1.9449    0.4597 H   0  0  0  0  0  0  0  0  0  0  0  0
    9.4156    2.0854   -0.2174 H   0  0  0  0  0  0  0  0  0  0  0  0
   11.1162    1.2798   -1.7607 H   0  0  0  0  0  0  0  0  0  0  0  0
   10.9764   -0.1896   -2.5690 H   0  0  0  0  0  0  0  0  0  0  0  0
    9.0447   -1.6316   -2.3269 H   0  0  0  0  0  0  0  0  0  0  0  0
    6.6948   -1.7643   -1.7111 H   0  0  0  0  0  0  0  0  0  0  0  0
  1  2  1  0  0  0  0
  1 15  1  0  0  0  0
  1 16  1  0  0  0  0
  2  3  2  0  0  0  0
  2  7  1  0  0  0  0
  3  4  1  0  0  0  0
  3 17  1  0  0  0  0
  4  5  2  0  0  0  0
  4 18  1  0  0  0  0
  5  6  1  0  0  0  0
  5  8  1  0  0  0  0
  6  7  2  0  0  0  0
  6 19  1  0  0  0  0
  7 20  1  0  0  0  0
  8  9  2  0  0  0  0
  8 14  1  0  0  0  0
  9 10  1  0  0  0  0
  9 21  1  0  0  0  0
 10 11  2  0  0  0  0
 10 22  1  0  0  0  0
 11 12  1  0  0  0  0
 11 13  1  0  0  0  0
 12 23  1  0  0  0  0
 12 24  1  0  0  0  0
 13 14  2  0  0  0  0
 13 25  1  0  0  0  0
 14 26  1  0  0  0  0
M  END
$$$$

 OpenBabel12201709243D

 17 17  0  0  0  0  0  0  0  0999 V2000
    0.9219    0.2132   -0.2497 Cl  0  0  0  0  0  0  0  0  0  0  0  0
    2.6674    0.2287   -0.5789 C   0  0  0  0  0  0  0  0  0  0  0  0
    3.2340   -1.1740   -0.6691 C   0  0  0  0  0  0  0  0  0  0  0  0
    2.5586   -2.1945   -0.5494 O   0  0  0  0  0  0  0  0  0  0  0  0
    4.7030   -1.3178   -0.9243 C   0  0  0  0  0  0  0  0  0  0  0  0
    5.5574   -0.2149   -1.0582 C   0  0  0  0  0  0  0  0  0  0  0  0
    6.9218   -0.4079   -1.2965 C   0  0  0  0  0  0  0  0  0  0  0  0
    7.4408   -1.6971   -1.4030 C   0  0  0  0  0  0  0  0  0  0  0  0
    6.5991   -2.7989   -1.2713 C   0  0  0  0  0  0  0  0  0  0  0  0
    5.2364   -2.6108   -1.0326 C   0  0  0  0  0  0  0  0  0  0  0  0
    3.1435    0.7730    0.2404 H   0  0  0  0  0  0  0  0  0  0  0  0
    2.8131    0.7506   -1.5281 H   0  0  0  0  0  0  0  0  0  0  0  0
    5.1981    0.8067   -0.9826 H   0  0  0  0  0  0  0  0  0  0  0  0
    7.5832    0.4496   -1.3994 H   0  0  0  0  0  0  0  0  0  0  0  0
    8.5022   -1.8439   -1.5888 H   0  0  0  0  0  0  0  0  0  0  0  0
    7.0008   -3.8060   -1.3539 H   0  0  0  0  0  0  0  0  0  0  0  0
    4.5914   -3.4827   -0.9318 H   0  0  0  0  0  0  0  0  0  0  0  0
  1  2  1  0  0  0  0
  2  3  1  0  0  0  0
  2 11  1  0  0  0  0
  2 12  1  0  0  0  0
  3  4  2  0  0  0  0
  3  5  1  0  0  0  0
  5  6  2  0  0  0  0
  5 10  1  0  0  0  0
  6  7  1  0  0  0  0
  6 13  1  0  0  0  0
  7  8  2  0  0  0  0
  7 14  1  0  0  0  0
  8  9  1  0  0  0  0
  8 15  1  0  0  0  0
  9 10  2  0  0  0  0
  9 16  1  0  0  0  0
 10 17  1  0  0  0  0
M  END
$$$$

 OpenBabel12201709243D

 21 21  0  0  0  0  0  0  0  0999 V2000
    3.3280   -0.0937   -1.0990 C   0  0  0  0  0  0  0  0  0  0  0  0
    2.3994    0.0247    0.0992 C   0  0  0  0  0  0  0  0  0  0  0  0
    2.9046   -0.7775    1.2700 C   0  0  0  0  0  0  0  0  0  0  0  0
    3.7517   -0.2003    2.2102 C   0  0  0  0  0  0  0  0  0  0  0  0
    4.2106   -0.9792    3.2781 C   0  0  0  0  0  0  0  0  0  0  0  0
    3.8022   -2.3109    3.3648 C   0  0  0  0  0  0  0  0  0  0  0  0
    2.9685   -2.8051    2.3784 C   0  0  0  0  0  0  0  0  0  0  0  0
    2.5206   -2.0739    1.3383 N   0  0  0  0  0  0  0  0  0  0  0  0
    5.1099   -0.4033    4.3182 C   0  0  0  0  0  0  0  0  0  0  0  0
    5.1297    1.1952    4.8104 S   0  0  0  0  0  0  0  0  0  0  0  0
    5.9987   -1.2628    4.9143 N   0  0  0  0  0  0  0  0  0  0  0  0
    2.9360    0.4858   -1.9408 H   0  0  0  0  0  0  0  0  0  0  0  0
    3.4284   -1.1358   -1.4216 H   0  0  0  0  0  0  0  0  0  0  0  0
    4.3294    0.2826   -0.8642 H   0  0  0  0  0  0  0  0  0  0  0  0
    1.4008   -0.3349   -0.1760 H   0  0  0  0  0  0  0  0  0  0  0  0
    2.2850    1.0768    0.3858 H   0  0  0  0  0  0  0  0  0  0  0  0
    4.0462    0.8385    2.1007 H   0  0  0  0  0  0  0  0  0  0  0  0
    4.0957   -2.9542    4.1853 H   0  0  0  0  0  0  0  0  0  0  0  0
    2.6220   -3.8348    2.4004 H   0  0  0  0  0  0  0  0  0  0  0  0
    6.1525   -2.2164    4.6152 H   0  0  0  0  0  0  0  0  0  0  0  0
    6.6483   -0.8826    5.5946 H   0  0  0  0  0  0  0  0  0  0  0  0
  1  2  1  0  0  0  0
  1 12  1  0  0  0  0
  1 13  1  0  0  0  0
  1 14  1  0  0  0  0
  2  3  1  0  0  0  0
  2 15  1  0  0  0  0
  2 16  1  0  0  0  0
  3  4  2  0  0  0  0
  3  8  1  0  0  0  0
  4  5  1  0  0  0  0
  4 17  1  0  0  0  0
  5  6  2  0  0  0  0
  5  9  1  0  0  0  0
  6  7  1  0  0  0  0
  6 18  1  0  0  0  0
  7  8  2  0  0  0  0
  7 19  1  0  0  0  0
  9 10  2  0  0  0  0
  9 11  1  0  0  0  0
 11 20  1  0  0  0  0
 11 21  1  0  0  0  0
M  END
$$$$

 OpenBabel12201709243D

 18 19  0  0  0  0  0  0  0  0999 V2000
    2.8823   -1.3050   -0.3227 O   0  0  0  0  0  0  0  0  0  0  0  0
    2.4293   -0.0193   -0.1571 N   0  0  0  0  0  0  0  0  0  0  0  0
    1.4776    0.1746    0.5710 O   0  0  0  0  0  0  0  0  0  0  0  0
    3.0551    1.0512   -0.8185 C   0  0  0  0  0  0  0  0  0  0  0  0
    2.6964    2.3855   -0.7334 C   0  0  0  0  0  0  0  0  0  0  0  0
    3.5897    3.1051   -1.5614 C   0  0  0  0  0  0  0  0  0  0  0  0
    4.4491    2.1793   -2.1158 C   0  0  0  0  0  0  0  0  0  0  0  0
    4.1302    0.9307   -1.6618 O   0  0  0  0  0  0  0  0  0  0  0  0
    5.5521    2.4867   -3.0692 C   0  0  0  0  0  0  0  0  0  0  0  0
    6.3762    1.5112   -3.5920 C   0  0  0  0  0  0  0  0  0  0  0  0
    7.5162    2.2249   -4.6574 S   0  0  0  0  0  0  0  0  0  0  0  0
    6.8236    3.7611   -4.3344 C   0  0  0  0  0  0  0  0  0  0  0  0
    5.8119    3.7789   -3.4947 N   0  0  0  0  0  0  0  0  0  0  0  0
    2.2379   -1.7428    0.2563 H   0  0  0  0  0  0  0  0  0  0  0  0
    1.8816    2.7831   -0.1420 H   0  0  0  0  0  0  0  0  0  0  0  0
    3.6104    4.1714   -1.7435 H   0  0  0  0  0  0  0  0  0  0  0  0
    6.3622    0.4464   -3.4076 H   0  0  0  0  0  0  0  0  0  0  0  0
    7.2036    4.6610   -4.8003 H   0  0  0  0  0  0  0  0  0  0  0  0
  1  2  1  0  0  0  0
  1 14  1  0  0  0  0
  2  3  2  0  0  0  0
  2  4  1  0  0  0  0
  4  5  2  0  0  0  0
  4  8  1  0  0  0  0
  5  6  1  0  0  0  0
  5 15  1  0  0  0  0
  6  7  2  0  0  0  0
  6 16  1  0  0  0  0
  7  8  1  0  0  0  0
  7  9  1  0  0  0  0
  9 10  2  0  0  0  0
  9 13  1  0  0  0  0
 10 11  1  0  0  0  0
 10 17  1  0  0  0  0
 11 12  1  0  0  0  0
 12 13  2  0  0  0  0
 12 18  1  0  0  0  0
M  END
$$$$

 OpenBabel12201709243D

 26 27  0  0  1  0  0  0  0  0999 V2000
    0.9679   -0.0068    0.0840 C   0  0  0  0  0  0  0  0  0  0  0  0
    2.4215   -0.0273    0.1779 N   0  0  0  0  0  0  0  0  0  0  0  0
    2.9410    1.0340    1.0369 C   0  0  0  0  0  0  0  0  0  0  0  0
    4.3705    0.5854    1.2641 C   0  0  0  0  0  0  0  0  0  0  0  0
    4.2503   -0.9228    1.4264 C   0  0  0  0  0  0  0  0  0  0  0  0
    2.9447   -1.3021    0.7087 C   0  0  3  0  0  0  0  0  0  0  0  0
    3.1659   -2.3439   -0.3629 C   0  0  0  0  0  0  0  0  0  0  0  0
    3.5023   -2.0206   -1.6825 C   0  0  0  0  0  0  0  0  0  0  0  0
    3.6771   -3.0295   -2.6253 C   0  0  0  0  0  0  0  0  0  0  0  0
    3.5269   -4.3419   -2.2138 C   0  0  0  0  0  0  0  0  0  0  0  0
    3.2288   -4.7018   -0.9478 N   0  0  0  0  0  0  0  0  0  0  0  0
    3.0573   -3.6978   -0.0564 C   0  0  0  0  0  0  0  0  0  0  0  0
    0.6290    0.9380   -0.3539 H   0  0  0  0  0  0  0  0  0  0  0  0
    0.4864   -0.1236    1.0616 H   0  0  0  0  0  0  0  0  0  0  0  0
    0.6086   -0.8076   -0.5719 H   0  0  0  0  0  0  0  0  0  0  0  0
    2.4040    1.0889    1.9918 H   0  0  0  0  0  0  0  0  0  0  0  0
    2.8998    2.0127    0.5487 H   0  0  0  0  0  0  0  0  0  0  0  0
    4.8244    1.0614    2.1385 H   0  0  0  0  0  0  0  0  0  0  0  0
    4.9899    0.8176    0.3889 H   0  0  0  0  0  0  0  0  0  0  0  0
    4.1616   -1.1635    2.4937 H   0  0  0  0  0  0  0  0  0  0  0  0
    5.1425   -1.4302    1.0446 H   0  0  0  0  0  0  0  0  0  0  0  0
    2.2502   -1.7044    1.4604 H   0  0  0  0  0  0  0  0  0  0  0  0
    3.6135   -0.9807   -1.9819 H   0  0  0  0  0  0  0  0  0  0  0  0
    3.9207   -2.7944   -3.6549 H   0  0  0  0  0  0  0  0  0  0  0  0
    3.6462   -5.1640   -2.9138 H   0  0  0  0  0  0  0  0  0  0  0  0
    2.8174   -4.0303    0.9499 H   0  0  0  0  0  0  0  0  0  0  0  0
  1  2  1  0  0  0  0
  1 13  1  0  0  0  0
  1 14  1  0  0  0  0
  1 15  1  0  0  0  0
  2  3  1  0  0  0  0
  2  6  1  0  0  0  0
  3  4  1  0  0  0  0
  3 16  1  0  0  0  0
  3 17  1  0  0  0  0
  4  5  1  0  0  0  0
  4 18  1  0  0  0  0
  4 19  1  0  0  0  0
  5  6  1  0  0  0  0
  5 20  1  0  0  0  0
  5 21  1  0  0  0  0
  6  7  1  0  0  0  0
  6 22  1  0  0  0  0
  7  8  2  0  0  0  0
  7 12  1  0  0  0  0
  8  9  1  0  0  0  0
  8 23  1  0  0  0  0
  9 10  2  0  0  0  0
  9 24  1  0  0  0  0
 10 11  1  0  0  0  0
 10 25  1  0  0  0  0
 11 12  2  0  0  0  0
 12 26  1  0  0  0  0
M  END
$$$$

 OpenBabel12201709243D

 32 33  0  0  0  0  0  0  0  0999 V2000
    1.4703   -0.9309   -0.1816 N   0  0  0  0  0  0  0  0  0  0  0  0
    2.7898    0.0845    0.0087 S   0  0  0  0  0  0  0  0  0  0  0  0
    2.2683    1.2522    0.6882 O   0  0  0  0  0  0  0  0  0  0  0  0
    3.8669   -0.7006    0.5595 O   0  0  0  0  0  0  0  0  0  0  0  0
    3.1894    0.5195   -1.6541 C   0  0  0  0  0  0  0  0  0  0  0  0
    3.1413    1.8653   -2.0358 C   0  0  0  0  0  0  0  0  0  0  0  0
    3.4908    2.2451   -3.3435 C   0  0  0  0  0  0  0  0  0  0  0  0
    3.3997    3.7009   -3.6652 C   0  0  0  0  0  0  0  0  0  0  0  0
    2.6991    4.4700   -3.0287 O   0  0  0  0  0  0  0  0  0  0  0  0
    4.1937    4.0998   -4.6810 O   0  0  0  0  0  0  0  0  0  0  0  0
    3.9215    1.2783   -4.2827 C   0  0  0  0  0  0  0  0  0  0  0  0
    4.2211    1.6807   -5.6009 N   0  0  0  0  0  0  0  0  0  0  0  0
    5.0384    0.8100   -6.4661 C   0  0  0  0  0  0  0  0  0  0  0  0
    5.2414    1.4136   -7.8113 C   0  0  0  0  0  0  0  0  0  0  0  0
    6.3416    1.8897   -8.4919 C   0  0  0  0  0  0  0  0  0  0  0  0
    5.8608    2.3739   -9.7331 C   0  0  0  0  0  0  0  0  0  0  0  0
    4.5019    2.1646   -9.7287 C   0  0  0  0  0  0  0  0  0  0  0  0
    4.1156    1.5796   -8.5663 O   0  0  0  0  0  0  0  0  0  0  0  0
    3.9254   -0.0659   -3.8827 C   0  0  0  0  0  0  0  0  0  0  0  0
    3.5713   -0.4498   -2.5802 C   0  0  0  0  0  0  0  0  0  0  0  0
    3.6193   -2.1455   -2.2434 Cl  0  0  0  0  0  0  0  0  0  0  0  0
    0.7067   -0.6196    0.4197 H   0  0  0  0  0  0  0  0  0  0  0  0
    1.7454   -1.9024   -0.0347 H   0  0  0  0  0  0  0  0  0  0  0  0
    2.8426    2.6332   -1.3193 H   0  0  0  0  0  0  0  0  0  0  0  0
    4.6016    3.3316   -5.1481 H   0  0  0  0  0  0  0  0  0  0  0  0
    3.3402    1.8651   -6.1036 H   0  0  0  0  0  0  0  0  0  0  0  0
    4.5508   -0.1615   -6.6097 H   0  0  0  0  0  0  0  0  0  0  0  0
    6.0128    0.6370   -5.9928 H   0  0  0  0  0  0  0  0  0  0  0  0
    7.3624    1.8983   -8.1346 H   0  0  0  0  0  0  0  0  0  0  0  0
    6.4320    2.8276  -10.5310 H   0  0  0  0  0  0  0  0  0  0  0  0
    3.7100    2.3672  -10.4369 H   0  0  0  0  0  0  0  0  0  0  0  0
    4.1926   -0.8533   -4.5821 H   0  0  0  0  0  0  0  0  0  0  0  0
  1  2  1  0  0  0  0
  1 22  1  0  0  0  0
  1 23  1  0  0  0  0
  2  3  2  0  0  0  0
  2  4  2  0  0  0  0
  2  5  1  0  0  0  0
  5  6  2  0  0  0  0
  5 20  1  0  0  0  0
  6  7  1  0  0  0  0
  6 24  1  0  0  0  0
  7  8  1  0  0  0  0
  7 11  2  0  0  0  0
  8  9  2  0  0  0  0
  8 10  1  0  0  0  0
 10 25  1  0  0  0  0
 11 12  1  0  0  0  0
 11 19  1  0  0  0  0
 12 13  1  0  0  0  0
 12 26  1  0  0  0  0
 13 14  1  0  0  0  0
 13 27  1  0  0  0  0
 13 28  1  0  0  0  0
 14 15  2  0  0  0  0
 14 18  1  0  0  0  0
 15 16  1  0  0  0  0
 15 29  1  0  0  0  0
 16 17  2  0  0  0  0
 16 30  1  0  0  0  0
 17 18  1  0  0  0  0
 17 31  1  0  0  0  0
 19 20  2  0  0  0  0
 19 32  1  0  0  0  0
 20 21  1  0  0  0  0
M  END
$$$$

 OpenBabel12201709243D

 36 37  0  0  1  0  0  0  0  0999 V2000
    0.8275   -0.1361   -0.3063 C   0  0  0  0  0  0  0  0  0  0  0  0
    2.3561   -0.1702   -0.2554 C   0  0  0  0  0  0  0  0  0  0  0  0
    2.8563   -1.4914   -0.8469 C   0  0  0  0  0  0  0  0  0  0  0  0
    2.8830    0.9908   -0.9860 N   0  0  0  0  0  0  0  0  0  0  0  0
    4.3495    1.0903   -0.8967 C   0  0  0  0  0  0  0  0  0  0  0  0
    4.9029    2.3903   -1.5330 C   0  0  3  0  0  0  0  0  0  0  0  0
    4.3832    3.5196   -0.8208 O   0  0  0  0  0  0  0  0  0  0  0  0
    6.4247    2.3678   -1.5178 C   0  0  0  0  0  0  0  0  0  0  0  0
    7.1470    2.3330   -0.3187 C   0  0  0  0  0  0  0  0  0  0  0  0
    8.5375    2.2036   -0.3221 C   0  0  0  0  0  0  0  0  0  0  0  0
    9.2450    2.1011   -1.5262 C   0  0  0  0  0  0  0  0  0  0  0  0
   10.6417    1.9405   -1.5407 C   0  0  0  0  0  0  0  0  0  0  0  0
   11.3330    1.8227   -2.7472 C   0  0  0  0  0  0  0  0  0  0  0  0
   10.6411    1.8728   -3.9518 C   0  0  0  0  0  0  0  0  0  0  0  0
    9.2542    2.0388   -3.9534 C   0  0  0  0  0  0  0  0  0  0  0  0
    8.5397    2.1497   -2.7486 C   0  0  0  0  0  0  0  0  0  0  0  0
    7.1379    2.2886   -2.7291 C   0  0  0  0  0  0  0  0  0  0  0  0
    0.4061   -1.0000    0.2203 H   0  0  0  0  0  0  0  0  0  0  0  0
    0.4593   -0.1618   -1.3379 H   0  0  0  0  0  0  0  0  0  0  0  0
    0.4350    0.7661    0.1749 H   0  0  0  0  0  0  0  0  0  0  0  0
    2.6571   -0.1135    0.7983 H   0  0  0  0  0  0  0  0  0  0  0  0
    2.6763   -1.5365   -1.9270 H   0  0  0  0  0  0  0  0  0  0  0  0
    2.3505   -2.3445   -0.3845 H   0  0  0  0  0  0  0  0  0  0  0  0
    3.9295   -1.6276   -0.6751 H   0  0  0  0  0  0  0  0  0  0  0  0
    2.4872    1.8571   -0.6096 H   0  0  0  0  0  0  0  0  0  0  0  0
    4.8140    0.2401   -1.4050 H   0  0  0  0  0  0  0  0  0  0  0  0
    4.6333    1.0621    0.1623 H   0  0  0  0  0  0  0  0  0  0  0  0
    4.5401    2.4724   -2.5649 H   0  0  0  0  0  0  0  0  0  0  0  0
    5.0704    3.8425   -0.2167 H   0  0  0  0  0  0  0  0  0  0  0  0
    6.6332    2.3760    0.6388 H   0  0  0  0  0  0  0  0  0  0  0  0
    9.0661    2.1686    0.6301 H   0  0  0  0  0  0  0  0  0  0  0  0
   11.1995    1.8976   -0.6088 H   0  0  0  0  0  0  0  0  0  0  0  0
   12.4123    1.6915   -2.7426 H   0  0  0  0  0  0  0  0  0  0  0  0
   11.1794    1.7860   -4.8935 H   0  0  0  0  0  0  0  0  0  0  0  0
    8.7319    2.0709   -4.9076 H   0  0  0  0  0  0  0  0  0  0  0  0
    6.5931    2.3082   -3.6702 H   0  0  0  0  0  0  0  0  0  0  0  0
  1  2  1  0  0  0  0
  1 18  1  0  0  0  0
  1 19  1  0  0  0  0
  1 20  1  0  0  0  0
  2  3  1  0  0  0  0
  2  4  1  0  0  0  0
  2 21  1  0  0  0  0
  3 22  1  0  0  0  0
  3 23  1  0  0  0  0
  3 24  1  0  0  0  0
  4  5  1  0  0  0  0
  4 25  1  0  0  0  0
  5  6  1  0  0  0  0
  5 26  1  0  0  0  0
  5 27  1  0  0  0  0
  6  7  1  0  0  0  0
  6  8  1  0  0  0  0
  6 28  1  0  0  0  0
  7 29  1  0  0  0  0
  8  9  2  0  0  0  0
  8 17  1  0  0  0  0
  9 10  1  0  0  0  0
  9 30  1  0  0  0  0
 10 11  2  0  0  0  0
 10 31  1  0  0  0  0
 11 12  1  0  0  0  0
 11 16  1  0  0  0  0
 12 13  2  0  0  0  0
 12 32  1  0  0  0  0
 13 14  1  0  0  0  0
 13 33  1  0  0  0  0
 14 15  2  0  0  0  0
 14 34  1  0  0  0  0
 15 16  1  0  0  0  0
 15 35  1  0  0  0  0
 16 17  2  0  0  0  0
 17 36  1  0  0  0  0
M  END
$$$$

 OpenBabel12201709243D

 17 17  0  0  0  0  0  0  0  0999 V2000
    1.1369    0.7392    0.3243 N   0  0  0  0  0  0  0  0  0  0  0  0
    2.5480    0.7172    0.3297 N   0  0  0  0  0  0  0  0  0  0  0  0
    3.2272    0.7330   -0.8855 C   0  0  0  0  0  0  0  0  0  0  0  0
    2.6750    0.6594   -1.9792 O   0  0  0  0  0  0  0  0  0  0  0  0
    4.7051    0.8603   -0.7974 C   0  0  0  0  0  0  0  0  0  0  0  0
    5.4244    0.2840    0.2495 C   0  0  0  0  0  0  0  0  0  0  0  0
    6.7999    0.4255    0.2443 C   0  0  0  0  0  0  0  0  0  0  0  0
    7.4807    1.0905   -0.7112 N   0  0  0  0  0  0  0  0  0  0  0  0
    6.7617    1.6278   -1.7242 C   0  0  0  0  0  0  0  0  0  0  0  0
    5.3821    1.5358   -1.8108 C   0  0  0  0  0  0  0  0  0  0  0  0
    0.7903    0.0301    0.9728 H   0  0  0  0  0  0  0  0  0  0  0  0
    0.8348    0.4238   -0.6085 H   0  0  0  0  0  0  0  0  0  0  0  0
    3.0272    1.0352    1.1697 H   0  0  0  0  0  0  0  0  0  0  0  0
    4.9431   -0.2923    1.0323 H   0  0  0  0  0  0  0  0  0  0  0  0
    7.4119   -0.0135    1.0274 H   0  0  0  0  0  0  0  0  0  0  0  0
    7.3408    2.1444   -2.4820 H   0  0  0  0  0  0  0  0  0  0  0  0
    4.8528    1.9791   -2.6493 H   0  0  0  0  0  0  0  0  0  0  0  0
  1  2  1  0  0  0  0
  1 11  1  0  0  0  0
  1 12  1  0  0  0  0
  2  3  1  0  0  0  0
  2 13  1  0  0  0  0
  3  4  2  0  0  0  0
  3  5  1  0  0  0  0
  5  6  2  0  0  0  0
  5 10  1  0  0  0  0
  6  7  1  0  0  0  0
  6 14  1  0  0  0  0
  7  8  2  0  0  0  0
  7 15  1  0  0  0  0
  8  9  1  0  0  0  0
  9 10  2  0  0  0  0
  9 16  1  0  0  0  0
 10 17  1  0  0  0  0
M  END
$$$$

 OpenBabel12201709243D

 17 17  0  0  0  0  0  0  0  0999 V2000
    0.9963   -0.0700    0.0046 C   0  0  0  0  0  0  0  0  0  0  0  0
    2.4918   -0.0381   -0.0985 C   0  0  0  0  0  0  0  0  0  0  0  0
    3.1873    1.1738   -0.1395 C   0  0  0  0  0  0  0  0  0  0  0  0
    4.5812    1.1859   -0.2544 C   0  0  0  0  0  0  0  0  0  0  0  0
    5.2991   -0.0051   -0.3768 C   0  0  0  0  0  0  0  0  0  0  0  0
    6.6997    0.0113   -0.3818 N   0  0  0  0  0  0  0  0  0  0  0  0
    4.6093   -1.2137   -0.2656 C   0  0  0  0  0  0  0  0  0  0  0  0
    3.2159   -1.2336   -0.1508 C   0  0  0  0  0  0  0  0  0  0  0  0
    0.5785    0.9374    0.1023 H   0  0  0  0  0  0  0  0  0  0  0  0
    0.6876   -0.6465    0.8825 H   0  0  0  0  0  0  0  0  0  0  0  0
    0.5690   -0.5262   -0.8942 H   0  0  0  0  0  0  0  0  0  0  0  0
    2.6540    2.1188   -0.0704 H   0  0  0  0  0  0  0  0  0  0  0  0
    5.1012    2.1399   -0.2518 H   0  0  0  0  0  0  0  0  0  0  0  0
    7.0913    0.8593   -0.7795 H   0  0  0  0  0  0  0  0  0  0  0  0
    7.1112   -0.8250   -0.7843 H   0  0  0  0  0  0  0  0  0  0  0  0
    5.1511   -2.1552   -0.2722 H   0  0  0  0  0  0  0  0  0  0  0  0
    2.7013   -2.1898   -0.0908 H   0  0  0  0  0  0  0  0  0  0  0  0
  1  2  1  0  0  0  0
  1  9  1  0  0  0  0
  1 10  1  0  0  0  0
  1 11  1  0  0  0  0
  2  3  2  0  0  0  0
  2  8  1  0  0  0  0
  3  4  1  0  0  0  0
  3 12  1  0  0  0  0
  4  5  2  0  0  0  0
  4 13  1  0  0  0  0
  5  6  1  0  0  0  0
  5  7  1  0  0  0  0
  6 14  1  0  0  0  0
  6 15  1  0  0  0  0
  7  8  2  0  0  0  0
  7 16  1  0  0  0  0
  8 17  1  0  0  0  0
M  END
$$$$

 OpenBabel12201709243D

  9  8  0  0  0  0  0  0  0  0999 V2000
    0.9192    0.0566   -0.0453 O   0  0  0  0  0  0  0  0  0  0  0  0
    2.3428    0.0543   -0.0412 C   0  0  0  0  0  0  0  0  0  0  0  0
    2.8505    0.5594   -1.3771 C   0  0  0  0  0  0  0  0  0  0  0  0
    4.7929    0.5654   -1.3978 Br  0  0  0  0  0  0  0  0  0  0  0  0
    0.6311   -0.2724    0.8242 H   0  0  0  0  0  0  0  0  0  0  0  0
    2.6855   -0.9682    0.1501 H   0  0  0  0  0  0  0  0  0  0  0  0
    2.6865    0.6937    0.7788 H   0  0  0  0  0  0  0  0  0  0  0  0
    2.5155    1.5817   -1.5746 H   0  0  0  0  0  0  0  0  0  0  0  0
    2.5139   -0.0755   -2.2018 H   0  0  0  0  0  0  0  0  0  0  0  0
  1  2  1  0  0  0  0
  1  5  1  0  0  0  0
  2  3  1  0  0  0  0
  2  6  1  0  0  0  0
  2  7  1  0  0  0  0
  3  4  1  0  0  0  0
  3  8  1  0  0  0  0
  3  9  1  0  0  0  0
M  END
$$$$

 OpenBabel12201709243D

 16 16  0  0  0  0  0  0  0  0999 V2000
    1.1330   -0.1040    0.2739 N   0  0  0  0  0  0  0  0  0  0  0  0
    2.5044   -0.1253   -0.0152 C   0  0  0  0  0  0  0  0  0  0  0  0
    3.2311    1.0658   -0.0486 C   0  0  0  0  0  0  0  0  0  0  0  0
    4.6194    1.0453   -0.1857 C   0  0  0  0  0  0  0  0  0  0  0  0
    5.2938   -0.1730   -0.2701 C   0  0  0  0  0  0  0  0  0  0  0  0
    4.5887   -1.3771   -0.2400 C   0  0  0  0  0  0  0  0  0  0  0  0
    5.2799   -2.5950   -0.1737 N   0  0  0  0  0  0  0  0  0  0  0  0
    3.2043   -1.3377   -0.0344 C   0  0  0  0  0  0  0  0  0  0  0  0
    0.6651    0.7408   -0.0385 H   0  0  0  0  0  0  0  0  0  0  0  0
    0.6437   -0.9448   -0.0154 H   0  0  0  0  0  0  0  0  0  0  0  0
    2.7235    2.0212    0.0520 H   0  0  0  0  0  0  0  0  0  0  0  0
    5.1778    1.9773   -0.1990 H   0  0  0  0  0  0  0  0  0  0  0  0
    6.3780   -0.1740   -0.3404 H   0  0  0  0  0  0  0  0  0  0  0  0
    6.1845   -2.5739   -0.6338 H   0  0  0  0  0  0  0  0  0  0  0  0
    4.7222   -3.3941   -0.4575 H   0  0  0  0  0  0  0  0  0  0  0  0
    2.6610   -2.2676    0.1072 H   0  0  0  0  0  0  0  0  0  0  0  0
  1  2  1  0  0  0  0
  1  9  1  0  0  0  0
  1 10  1  0  0  0  0
  2  3  2  0  0  0  0
  2  8  1  0  0  0  0
  3  4  1  0  0  0  0
  3 11  1  0  0  0  0
  4  5  2  0  0  0  0
  4 12  1  0  0  0  0
  5  6  1  0  0  0  0
  5 13  1  0  0  0  0
  6  7  1  0  0  0  0
  6  8  2  0  0  0  0
  7 14  1  0  0  0  0
  7 15  1  0  0  0  0
  8 16  1  0  0  0  0
M  END
$$$$

 OpenBabel12201709243D

 22 22  0  0  0  0  0  0  0  0999 V2000
    1.0813   -0.4231   -0.2804 C   0  0  0  0  0  0  0  0  0  0  0  0
    2.3515    0.0729    0.1284 O   0  0  0  0  0  0  0  0  0  0  0  0
    2.9722   -0.6285    1.1270 C   0  0  0  0  0  0  0  0  0  0  0  0
    3.8148    0.1218    1.9462 C   0  0  0  0  0  0  0  0  0  0  0  0
    4.5190   -0.4893    2.9837 C   0  0  0  0  0  0  0  0  0  0  0  0
    4.4344   -1.8706    3.1752 C   0  0  0  0  0  0  0  0  0  0  0  0
    5.0496   -2.4535    4.3014 N   0  0  0  0  0  0  0  0  0  0  0  0
    3.5660   -2.6285    2.3627 C   0  0  0  0  0  0  0  0  0  0  0  0
    3.5325   -3.9763    2.6413 O   0  0  0  0  0  0  0  0  0  0  0  0
    2.6627   -4.7778    1.8524 C   0  0  0  0  0  0  0  0  0  0  0  0
    2.8499   -2.0047    1.3339 C   0  0  0  0  0  0  0  0  0  0  0  0
    0.6857    0.2597   -1.0387 H   0  0  0  0  0  0  0  0  0  0  0  0
    0.3807   -0.4366    0.5614 H   0  0  0  0  0  0  0  0  0  0  0  0
    1.1554   -1.4105   -0.7459 H   0  0  0  0  0  0  0  0  0  0  0  0
    3.9084    1.1930    1.7886 H   0  0  0  0  0  0  0  0  0  0  0  0
    5.1330    0.1185    3.6420 H   0  0  0  0  0  0  0  0  0  0  0  0
    5.9383   -2.0305    4.5442 H   0  0  0  0  0  0  0  0  0  0  0  0
    5.1050   -3.4641    4.1909 H   0  0  0  0  0  0  0  0  0  0  0  0
    2.7735   -5.8159    2.1808 H   0  0  0  0  0  0  0  0  0  0  0  0
    2.9364   -4.7382    0.7930 H   0  0  0  0  0  0  0  0  0  0  0  0
    1.6177   -4.4886    2.0039 H   0  0  0  0  0  0  0  0  0  0  0  0
    2.2152   -2.5885    0.6825 H   0  0  0  0  0  0  0  0  0  0  0  0
  1  2  1  0  0  0  0
  1 12  1  0  0  0  0
  1 13  1  0  0  0  0
  1 14  1  0  0  0  0
  2  3  1  0  0  0  0
  3  4  2  0  0  0  0
  3 11  1  0  0  0  0
  4  5  1  0  0  0  0
  4 15  1  0  0  0  0
  5  6  2  0  0  0  0
  5 16  1  0  0  0  0
  6  7  1  0  0  0  0
  6  8  1  0  0  0  0
  7 17  1  0  0  0  0
  7 18  1  0  0  0  0
  8  9  1  0  0  0  0
  8 11  2  0  0  0  0
  9 10  1  0  0  0  0
 10 19  1  0  0  0  0
 10 20  1  0  0  0  0
 10 21  1  0  0  0  0
 11 22  1  0  0  0  0
M  END
$$$$

 OpenBabel12201709243D

  9  8  0  0  0  0  0  0  0  0999 V2000
    1.7884   -1.2540   -0.9006 Cl  0  0  0  0  0  0  0  0  0  0  0  0
    2.7724   -0.0092   -0.1063 C   0  0  0  0  0  0  0  0  0  0  0  0
    3.3029    0.9393   -1.1290 C   0  0  0  0  0  0  0  0  0  0  0  0
    4.6049    1.1407   -1.3504 C   0  0  0  0  0  0  0  0  0  0  0  0
    5.1805    2.2468   -2.5248 Cl  0  0  0  0  0  0  0  0  0  0  0  0
    3.5702   -0.5146    0.4465 H   0  0  0  0  0  0  0  0  0  0  0  0
    2.1373    0.5214    0.6088 H   0  0  0  0  0  0  0  0  0  0  0  0
    2.5671    1.4925   -1.7083 H   0  0  0  0  0  0  0  0  0  0  0  0
    5.4095    0.6399   -0.8267 H   0  0  0  0  0  0  0  0  0  0  0  0
  1  2  1  0  0  0  0
  2  3  1  0  0  0  0
  2  6  1  0  0  0  0
  2  7  1  0  0  0  0
  3  4  2  3  0  0  0
  3  8  1  0  0  0  0
  4  5  1  0  0  0  0
  4  9  1  0  0  0  0
M  END
$$$$

 OpenBabel12201709243D

 26 25  0  0  0  0  0  0  0  0999 V2000
    3.1022   -1.1887   -1.1331 C   0  0  0  0  0  0  0  0  0  0  0  0
    2.6331   -0.1551   -0.1100 C   0  0  0  0  0  0  0  0  0  0  0  0
    2.8964   -0.6606    1.3093 C   0  0  0  0  0  0  0  0  0  0  0  0
    3.1752    1.2669   -0.3834 C   0  0  0  0  0  0  0  0  0  0  0  0
    4.6470    1.3995   -0.2605 N   0  0  0  0  0  0  0  0  0  0  0  0
    5.5006    1.2452   -1.3182 N   0  0  0  0  0  0  0  0  0  0  0  0
    4.9415    1.1881   -2.4175 O   0  0  0  0  0  0  0  0  0  0  0  0
    5.1906    1.5440    1.0267 C   0  0  0  0  0  0  0  0  0  0  0  0
    4.6299    2.2236    1.9960 N   0  0  0  0  0  0  0  0  0  0  0  0
    6.3360    0.7993    1.2609 N   0  0  0  0  0  0  0  0  0  0  0  0
    6.9046    0.7531    2.5293 N   0  0  0  0  0  0  0  0  0  0  0  0
    5.9043    0.5375    3.5533 O   0  0  0  0  0  0  0  0  0  0  0  0
    7.7920   -0.3887    2.5855 O   0  0  0  0  0  0  0  0  0  0  0  0
    2.5651   -2.1335   -0.9934 H   0  0  0  0  0  0  0  0  0  0  0  0
    4.1717   -1.4007   -1.0377 H   0  0  0  0  0  0  0  0  0  0  0  0
    2.9045   -0.8465   -2.1539 H   0  0  0  0  0  0  0  0  0  0  0  0
    1.5418   -0.0827   -0.2159 H   0  0  0  0  0  0  0  0  0  0  0  0
    3.9515   -0.9004    1.4698 H   0  0  0  0  0  0  0  0  0  0  0  0
    2.3260   -1.5772    1.4982 H   0  0  0  0  0  0  0  0  0  0  0  0
    2.5872    0.0778    2.0558 H   0  0  0  0  0  0  0  0  0  0  0  0
    2.6685    1.9660    0.2906 H   0  0  0  0  0  0  0  0  0  0  0  0
    2.8491    1.5821   -1.3829 H   0  0  0  0  0  0  0  0  0  0  0  0
    3.8251    2.7412    1.6414 H   0  0  0  0  0  0  0  0  0  0  0  0
    7.0144    0.7897    0.5075 H   0  0  0  0  0  0  0  0  0  0  0  0
    5.2995    1.2826    3.3289 H   0  0  0  0  0  0  0  0  0  0  0  0
    8.4731   -0.0257    3.1729 H   0  0  0  0  0  0  0  0  0  0  0  0
  1  2  1  0  0  0  0
  1 14  1  0  0  0  0
  1 15  1  0  0  0  0
  1 16  1  0  0  0  0
  2  3  1  0  0  0  0
  2  4  1  0  0  0  0
  2 17  1  0  0  0  0
  3 18  1  0  0  0  0
  3 19  1  0  0  0  0
  3 20  1  0  0  0  0
  4  5  1  0  0  0  0
  4 21  1  0  0  0  0
  4 22  1  0  0  0  0
  5  6  1  0  0  0  0
  5  8  1  0  0  0  0
  6  7  2  0  0  0  0
  8  9  2  0  0  0  0
  8 10  1  0  0  0  0
  9 23  1  0  0  0  0
 10 11  1  0  0  0  0
 10 24  1  0  0  0  0
 11 12  1  0  0  0  0
 11 13  1  0  0  0  0
 12 25  1  0  0  0  0
 13 26  1  0  0  0  0
M  END
$$$$

 OpenBabel12201709243D

 36 35  0  0  1  0  0  0  0  0999 V2000
    3.9474   -1.2675    2.1851 O   0  0  0  0  0  0  0  0  0  0  0  0
    3.7005   -0.6249    0.9328 C   0  0  0  0  0  0  0  0  0  0  0  0
    4.3809    0.7516    0.9375 C   0  0  3  0  0  0  0  0  0  0  0  0
    5.7754    0.6190    1.1990 O   0  0  0  0  0  0  0  0  0  0  0  0
    4.1658    1.4841   -0.4009 C   0  0  3  0  0  0  0  0  0  0  0  0
    2.7550    1.7152   -0.5674 O   0  0  0  0  0  0  0  0  0  0  0  0
    4.8921    2.8464   -0.5380 C   0  0  3  0  0  0  0  0  0  0  0  0
    4.3897    3.7378    0.4784 O   0  0  0  0  0  0  0  0  0  0  0  0
    6.4335    2.7854   -0.5153 C   0  0  3  0  0  0  0  0  0  0  0  0
    6.9935    1.8892   -1.5355 N   0  0  0  0  0  0  0  0  0  0  0  0
    8.1532    1.1854   -1.2479 C   0  0  0  0  0  0  0  0  0  0  0  0
    8.6559    1.2626   -0.1313 O   0  0  0  0  0  0  0  0  0  0  0  0
    8.6726    0.4174   -2.2923 N   0  0  0  0  0  0  0  0  0  0  0  0
    8.0620    0.2085   -3.6147 C   0  0  0  0  0  0  0  0  0  0  0  0
    7.6235   -1.2291   -3.8963 C   0  0  0  0  0  0  0  0  0  0  0  0
    6.3076   -1.7388   -2.8073 Cl  0  0  0  0  0  0  0  0  0  0  0  0
    9.9089   -0.1941   -2.0040 N   0  0  0  0  0  0  0  0  0  0  0  0
   10.4377   -0.7545   -2.9696 O   0  0  0  0  0  0  0  0  0  0  0  0
    6.9663    4.1738   -0.8507 C   0  0  0  0  0  0  0  0  0  0  0  0
    7.3105    4.5070   -1.9852 O   0  0  0  0  0  0  0  0  0  0  0  0
    3.4177   -2.0847    2.1943 H   0  0  0  0  0  0  0  0  0  0  0  0
    2.6192   -0.5362    0.7937 H   0  0  0  0  0  0  0  0  0  0  0  0
    4.1218   -1.2657    0.1522 H   0  0  0  0  0  0  0  0  0  0  0  0
    3.9553    1.3316    1.7659 H   0  0  0  0  0  0  0  0  0  0  0  0
    5.9697   -0.3269    1.3442 H   0  0  0  0  0  0  0  0  0  0  0  0
    4.4847    0.8339   -1.2236 H   0  0  0  0  0  0  0  0  0  0  0  0
    2.5534    2.5427   -0.0852 H   0  0  0  0  0  0  0  0  0  0  0  0
    4.5683    3.2945   -1.4867 H   0  0  0  0  0  0  0  0  0  0  0  0
    4.6515    3.3845    1.3497 H   0  0  0  0  0  0  0  0  0  0  0  0
    6.8200    2.5671    0.4813 H   0  0  0  0  0  0  0  0  0  0  0  0
    7.0142    2.3287   -2.4508 H   0  0  0  0  0  0  0  0  0  0  0  0
    8.7937    0.5279   -4.3695 H   0  0  0  0  0  0  0  0  0  0  0  0
    7.1952    0.8609   -3.7488 H   0  0  0  0  0  0  0  0  0  0  0  0
    8.4373   -1.9518   -3.7966 H   0  0  0  0  0  0  0  0  0  0  0  0
    7.2404   -1.3026   -4.9196 H   0  0  0  0  0  0  0  0  0  0  0  0
    6.9899    4.8926   -0.0104 H   0  0  0  0  0  0  0  0  0  0  0  0
  1  2  1  0  0  0  0
  1 21  1  0  0  0  0
  2  3  1  0  0  0  0
  2 22  1  0  0  0  0
  2 23  1  0  0  0  0
  3  4  1  0  0  0  0
  3  5  1  0  0  0  0
  3 24  1  0  0  0  0
  4 25  1  0  0  0  0
  5  6  1  0  0  0  0
  5  7  1  0  0  0  0
  5 26  1  0  0  0  0
  6 27  1  0  0  0  0
  7  8  1  0  0  0  0
  7  9  1  0  0  0  0
  7 28  1  0  0  0  0
  8 29  1  0  0  0  0
  9 10  1  0  0  0  0
  9 19  1  0  0  0  0
  9 30  1  0  0  0  0
 10 11  1  0  0  0  0
 10 31  1  0  0  0  0
 11 12  2  0  0  0  0
 11 13  1  0  0  0  0
 13 14  1  0  0  0  0
 13 17  1  0  0  0  0
 14 15  1  0  0  0  0
 14 32  1  0  0  0  0
 14 33  1  0  0  0  0
 15 16  1  0  0  0  0
 15 34  1  0  0  0  0
 15 35  1  0  0  0  0
 17 18  2  0  0  0  0
 19 20  2  0  0  0  0
 19 36  1  0  0  0  0
M  END
$$$$

 OpenBabel12201709243D

 58 60  0  0  0  0  0  0  0  0999 V2000
    3.6945   -1.3841   -0.1019 C   0  0  0  0  0  0  0  0  0  0  0  0
    4.2319   -0.2821    0.7003 N   0  0  0  0  0  0  0  0  0  0  0  0
    5.1907   -0.6653    1.7372 C   0  0  0  0  0  0  0  0  0  0  0  0
    4.2772    1.0038    0.1568 C   0  0  0  0  0  0  0  0  0  0  0  0
    3.5985    1.3463   -1.0280 C   0  0  0  0  0  0  0  0  0  0  0  0
    3.7194    2.6106   -1.6363 C   0  0  0  0  0  0  0  0  0  0  0  0
    4.5181    3.5981   -1.0622 C   0  0  0  0  0  0  0  0  0  0  0  0
    5.1213    3.3235    0.1692 C   0  0  0  0  0  0  0  0  0  0  0  0
    4.9965    2.0536    0.7631 C   0  0  0  0  0  0  0  0  0  0  0  0
    4.8338    4.8646   -1.7920 C   0  0  0  0  0  0  0  0  0  0  0  0
    4.1317    6.0160   -1.5859 C   0  0  0  0  0  0  0  0  0  0  0  0
    2.9290    6.0724   -0.7566 C   0  0  0  0  0  0  0  0  0  0  0  0
    2.4703    7.2401   -0.2775 C   0  0  0  0  0  0  0  0  0  0  0  0
    3.2259    8.5129   -0.5493 C   0  0  0  0  0  0  0  0  0  0  0  0
    3.1436    9.5692    0.2137 N   0  0  0  0  0  0  0  0  0  0  0  0
    2.3215    9.6323    1.4686 C   0  0  0  0  0  0  0  0  0  0  0  0
    3.9051   10.8419   -0.0215 C   0  0  0  0  0  0  0  0  0  0  0  0
    4.0645    8.4574   -1.7934 C   0  0  0  0  0  0  0  0  0  0  0  0
    4.4733    7.2717   -2.2696 C   0  0  0  0  0  0  0  0  0  0  0  0
    5.9758    4.8650   -2.7561 C   0  0  0  0  0  0  0  0  0  0  0  0
    7.2497    5.3039   -2.3925 C   0  0  0  0  0  0  0  0  0  0  0  0
    8.2799    5.3836   -3.3507 C   0  0  0  0  0  0  0  0  0  0  0  0
    8.0888    5.0241   -4.6962 C   0  0  0  0  0  0  0  0  0  0  0  0
    6.8034    4.5589   -5.0225 C   0  0  0  0  0  0  0  0  0  0  0  0
    5.7668    4.4727   -4.0797 C   0  0  0  0  0  0  0  0  0  0  0  0
    9.0711    5.1686   -5.6664 N   0  0  0  0  0  0  0  0  0  0  0  0
    9.1530    4.2494   -6.8041 C   0  0  0  0  0  0  0  0  0  0  0  0
   10.2891    5.9431   -5.4410 C   0  0  0  0  0  0  0  0  0  0  0  0
    3.8678   -2.3571    0.3737 H   0  0  0  0  0  0  0  0  0  0  0  0
    4.1596   -1.4288   -1.0930 H   0  0  0  0  0  0  0  0  0  0  0  0
    2.6097   -1.2816   -0.2081 H   0  0  0  0  0  0  0  0  0  0  0  0
    5.0954   -1.7247    2.0049 H   0  0  0  0  0  0  0  0  0  0  0  0
    5.0093   -0.1031    2.6586 H   0  0  0  0  0  0  0  0  0  0  0  0
    6.2236   -0.5091    1.4068 H   0  0  0  0  0  0  0  0  0  0  0  0
    2.9793    0.6142   -1.5402 H   0  0  0  0  0  0  0  0  0  0  0  0
    3.2118    2.7870   -2.5803 H   0  0  0  0  0  0  0  0  0  0  0  0
    5.7264    4.0726    0.6665 H   0  0  0  0  0  0  0  0  0  0  0  0
    5.5078    1.8950    1.7107 H   0  0  0  0  0  0  0  0  0  0  0  0
    2.3681    5.1572   -0.5791 H   0  0  0  0  0  0  0  0  0  0  0  0
    1.5450    7.2558    0.2870 H   0  0  0  0  0  0  0  0  0  0  0  0
    1.9514    8.6511    1.7622 H   0  0  0  0  0  0  0  0  0  0  0  0
    1.4906   10.3188    1.2874 H   0  0  0  0  0  0  0  0  0  0  0  0
    2.9580   10.0110    2.2738 H   0  0  0  0  0  0  0  0  0  0  0  0
    4.6479   10.7367   -0.8103 H   0  0  0  0  0  0  0  0  0  0  0  0
    4.4242   11.1045    0.9050 H   0  0  0  0  0  0  0  0  0  0  0  0
    3.1816   11.6216   -0.2800 H   0  0  0  0  0  0  0  0  0  0  0  0
    4.3410    9.3617   -2.3252 H   0  0  0  0  0  0  0  0  0  0  0  0
    5.0735    7.2437   -3.1792 H   0  0  0  0  0  0  0  0  0  0  0  0
    7.4586    5.6003   -1.3684 H   0  0  0  0  0  0  0  0  0  0  0  0
    9.2504    5.7306   -3.0069 H   0  0  0  0  0  0  0  0  0  0  0  0
    6.5587    4.2906   -6.0465 H   0  0  0  0  0  0  0  0  0  0  0  0
    4.7913    4.1197   -4.4052 H   0  0  0  0  0  0  0  0  0  0  0  0
    8.3099    3.5618   -6.9031 H   0  0  0  0  0  0  0  0  0  0  0  0
   10.0543    3.6300   -6.7222 H   0  0  0  0  0  0  0  0  0  0  0  0
    9.2246    4.8239   -7.7347 H   0  0  0  0  0  0  0  0  0  0  0  0
   10.1795    6.7215   -4.6813 H   0  0  0  0  0  0  0  0  0  0  0  0
   10.5654    6.4622   -6.3675 H   0  0  0  0  0  0  0  0  0  0  0  0
   11.1210    5.2860   -5.1645 H   0  0  0  0  0  0  0  0  0  0  0  0
  1  2  1  0  0  0  0
  1 29  1  0  0  0  0
  1 30  1  0  0  0  0
  1 31  1  0  0  0  0
  2  3  1  0  0  0  0
  2  4  1  0  0  0  0
  3 32  1  0  0  0  0
  3 33  1  0  0  0  0
  3 34  1  0  0  0  0
  4  5  2  0  0  0  0
  4  9  1  0  0  0  0
  5  6  1  0  0  0  0
  5 35  1  0  0  0  0
  6  7  2  0  0  0  0
  6 36  1  0  0  0  0
  7  8  1  0  0  0  0
  7 10  1  0  0  0  0
  8  9  2  0  0  0  0
  8 37  1  0  0  0  0
  9 38  1  0  0  0  0
 10 11  2  0  0  0  0
 10 20  1  0  0  0  0
 11 12  1  0  0  0  0
 11 19  1  0  0  0  0
 12 13  2  0  0  0  0
 12 39  1  0  0  0  0
 13 14  1  0  0  0  0
 13 40  1  0  0  0  0
 14 15  2  0  0  0  0
 14 18  1  0  0  0  0
 15 16  1  0  0  0  0
 15 17  1  0  0  0  0
 16 41  1  0  0  0  0
 16 42  1  0  0  0  0
 16 43  1  0  0  0  0
 17 44  1  0  0  0  0
 17 45  1  0  0  0  0
 17 46  1  0  0  0  0
 18 19  2  0  0  0  0
 18 47  1  0  0  0  0
 19 48  1  0  0  0  0
 20 21  2  0  0  0  0
 20 25  1  0  0  0  0
 21 22  1  0  0  0  0
 21 49  1  0  0  0  0
 22 23  2  0  0  0  0
 22 50  1  0  0  0  0
 23 24  1  0  0  0  0
 23 26  1  0  0  0  0
 24 25  2  0  0  0  0
 24 51  1  0  0  0  0
 25 52  1  0  0  0  0
 26 27  1  0  0  0  0
 26 28  1  0  0  0  0
 27 53  1  0  0  0  0
 27 54  1  0  0  0  0
 27 55  1  0  0  0  0
 28 56  1  0  0  0  0
 28 57  1  0  0  0  0
 28 58  1  0  0  0  0
M  END
$$$$

 OpenBabel12201709243D

 17 16  0  0  0  0  0  0  0  0999 V2000
    1.0832    0.3122    0.1258 C   0  0  0  0  0  0  0  0  0  0  0  0
    2.5698    0.0393   -0.0947 C   0  0  0  0  0  0  0  0  0  0  0  0
    2.9706   -1.3602   -0.3073 N   0  0  0  0  0  0  0  0  0  0  0  0
    2.0558   -2.2023   -1.0888 C   0  0  0  0  0  0  0  0  0  0  0  0
    1.5579   -3.3471   -0.2100 C   0  0  0  0  0  0  0  0  0  0  0  0
    4.2598   -1.4754   -0.5647 N   0  0  0  0  0  0  0  0  0  0  0  0
    4.6217   -2.6531   -0.6549 O   0  0  0  0  0  0  0  0  0  0  0  0
    0.9511    1.3206    0.5300 H   0  0  0  0  0  0  0  0  0  0  0  0
    0.6395   -0.3937    0.8360 H   0  0  0  0  0  0  0  0  0  0  0  0
    0.5283    0.2683   -0.8155 H   0  0  0  0  0  0  0  0  0  0  0  0
    3.0881    0.3913    0.8059 H   0  0  0  0  0  0  0  0  0  0  0  0
    2.9135    0.6737   -0.9242 H   0  0  0  0  0  0  0  0  0  0  0  0
    2.5301   -2.6166   -1.9901 H   0  0  0  0  0  0  0  0  0  0  0  0
    1.1864   -1.6548   -1.4679 H   0  0  0  0  0  0  0  0  0  0  0  0
    2.3860   -3.9616    0.1592 H   0  0  0  0  0  0  0  0  0  0  0  0
    0.8855   -3.9988   -0.7775 H   0  0  0  0  0  0  0  0  0  0  0  0
    1.0048   -2.9672    0.6561 H   0  0  0  0  0  0  0  0  0  0  0  0
  1  2  1  0  0  0  0
  1  8  1  0  0  0  0
  1  9  1  0  0  0  0
  1 10  1  0  0  0  0
  2  3  1  0  0  0  0
  2 11  1  0  0  0  0
  2 12  1  0  0  0  0
  3  4  1  0  0  0  0
  3  6  1  0  0  0  0
  4  5  1  0  0  0  0
  4 13  1  0  0  0  0
  4 14  1  0  0  0  0
  5 15  1  0  0  0  0
  5 16  1  0  0  0  0
  5 17  1  0  0  0  0
  6  7  2  0  0  0  0
M  END
$$$$

 OpenBabel12201709243D

 31 31  0  0  0  0  0  0  0  0999 V2000
    5.1821    0.0699    1.6179 C   0  0  0  0  0  0  0  0  0  0  0  0
    3.8646    0.3454    1.1866 O   0  0  0  0  0  0  0  0  0  0  0  0
    3.7230    1.7751    0.2229 P   0  0  0  0  0  0  0  0  0  0  0  0
    2.5946    0.6376   -1.0766 S   0  0  0  0  0  0  0  0  0  0  0  0
    2.5322    2.3317    1.2208 O   0  0  0  0  0  0  0  0  0  0  0  0
    2.7986    3.0993    2.3592 C   0  0  0  0  0  0  0  0  0  0  0  0
    3.5814    3.2048   -0.7409 O   0  0  0  0  0  0  0  0  0  0  0  0
    4.4941    3.3493   -1.7826 C   0  0  0  0  0  0  0  0  0  0  0  0
    4.7770    4.6255   -2.2434 C   0  0  0  0  0  0  0  0  0  0  0  0
    5.6635    4.8070   -3.3197 C   0  0  0  0  0  0  0  0  0  0  0  0
    6.2493    3.7228   -4.0001 C   0  0  0  0  0  0  0  0  0  0  0  0
    7.4415    3.9607   -5.3211 S   0  0  0  0  0  0  0  0  0  0  0  0
    6.8371    5.4450   -6.1616 C   0  0  0  0  0  0  0  0  0  0  0  0
    5.9329    2.4212   -3.5661 C   0  0  0  0  0  0  0  0  0  0  0  0
    6.3896    1.1524   -4.2320 C   0  0  0  0  0  0  0  0  0  0  0  0
    5.1081    2.2701   -2.4338 C   0  0  0  0  0  0  0  0  0  0  0  0
    5.1504   -0.7466    2.3435 H   0  0  0  0  0  0  0  0  0  0  0  0
    5.6142    0.9540    2.0950 H   0  0  0  0  0  0  0  0  0  0  0  0
    5.7949   -0.2310    0.7648 H   0  0  0  0  0  0  0  0  0  0  0  0
    1.8501    3.5220    2.7049 H   0  0  0  0  0  0  0  0  0  0  0  0
    3.4852    3.9166    2.1261 H   0  0  0  0  0  0  0  0  0  0  0  0
    3.2015    2.4636    3.1511 H   0  0  0  0  0  0  0  0  0  0  0  0
    4.3224    5.4894   -1.7683 H   0  0  0  0  0  0  0  0  0  0  0  0
    5.8987    5.8300   -3.6144 H   0  0  0  0  0  0  0  0  0  0  0  0
    7.3601    5.5431   -7.1180 H   0  0  0  0  0  0  0  0  0  0  0  0
    7.0567    6.3346   -5.5657 H   0  0  0  0  0  0  0  0  0  0  0  0
    5.7651    5.3817   -6.3617 H   0  0  0  0  0  0  0  0  0  0  0  0
    6.8898    1.3036   -5.1912 H   0  0  0  0  0  0  0  0  0  0  0  0
    5.5202    0.5160   -4.4382 H   0  0  0  0  0  0  0  0  0  0  0  0
    7.0711    0.6061   -3.5708 H   0  0  0  0  0  0  0  0  0  0  0  0
    4.9336    1.2412   -2.1427 H   0  0  0  0  0  0  0  0  0  0  0  0
  1  2  1  0  0  0  0
  1 17  1  0  0  0  0
  1 18  1  0  0  0  0
  1 19  1  0  0  0  0
  2  3  1  0  0  0  0
  3  4  2  0  0  0  0
  3  5  1  0  0  0  0
  3  7  1  0  0  0  0
  5  6  1  0  0  0  0
  6 20  1  0  0  0  0
  6 21  1  0  0  0  0
  6 22  1  0  0  0  0
  7  8  1  0  0  0  0
  8  9  2  0  0  0  0
  8 16  1  0  0  0  0
  9 10  1  0  0  0  0
  9 23  1  0  0  0  0
 10 11  2  0  0  0  0
 10 24  1  0  0  0  0
 11 12  1  0  0  0  0
 11 14  1  0  0  0  0
 12 13  1  0  0  0  0
 13 25  1  0  0  0  0
 13 26  1  0  0  0  0
 13 27  1  0  0  0  0
 14 15  1  0  0  0  0
 14 16  2  0  0  0  0
 15 28  1  0  0  0  0
 15 29  1  0  0  0  0
 15 30  1  0  0  0  0
 16 31  1  0  0  0  0
M  END
$$$$

 OpenBabel12201709243D

 35 36  0  0  0  0  0  0  0  0999 V2000
    2.5155    1.5214    0.1237 C   0  0  0  0  0  0  0  0  0  0  0  0
    2.5845    0.0664    0.0388 N   0  0  0  0  0  0  0  0  0  0  0  0
    1.7249   -0.6917    0.9429 C   0  0  0  0  0  0  0  0  0  0  0  0
    3.1212   -0.5441   -1.0938 C   0  0  0  0  0  0  0  0  0  0  0  0
    3.7712    0.1871   -2.1022 C   0  0  0  0  0  0  0  0  0  0  0  0
    4.2739   -0.4209   -3.2648 C   0  0  0  0  0  0  0  0  0  0  0  0
    4.1642   -1.7946   -3.4624 C   0  0  0  0  0  0  0  0  0  0  0  0
    4.5883   -2.3313   -4.6966 N   0  0  0  0  0  0  0  0  0  0  0  0
    4.9644   -3.5167   -4.6003 N   0  0  0  0  0  0  0  0  0  0  0  0
    5.1763   -4.1263   -5.8549 C   0  0  0  0  0  0  0  0  0  0  0  0
    4.4183   -3.8287   -6.9968 C   0  0  0  0  0  0  0  0  0  0  0  0
    4.6097   -4.5311   -8.1882 C   0  0  0  0  0  0  0  0  0  0  0  0
    5.5536   -5.5543   -8.2511 C   0  0  0  0  0  0  0  0  0  0  0  0
    6.3163   -5.8803   -7.1239 C   0  0  0  0  0  0  0  0  0  0  0  0
    7.3228   -6.9910   -7.1668 C   0  0  0  0  0  0  0  0  0  0  0  0
    6.1260   -5.1538   -5.9377 C   0  0  0  0  0  0  0  0  0  0  0  0
    3.5568   -2.5472   -2.4540 C   0  0  0  0  0  0  0  0  0  0  0  0
    3.0566   -1.9328   -1.2942 C   0  0  0  0  0  0  0  0  0  0  0  0
    1.9853    1.8528    1.0233 H   0  0  0  0  0  0  0  0  0  0  0  0
    1.9845    1.9459   -0.7356 H   0  0  0  0  0  0  0  0  0  0  0  0
    3.5219    1.9498    0.1797 H   0  0  0  0  0  0  0  0  0  0  0  0
    1.2945   -0.0568    1.7251 H   0  0  0  0  0  0  0  0  0  0  0  0
    2.2972   -1.4727    1.4553 H   0  0  0  0  0  0  0  0  0  0  0  0
    0.8866   -1.1476    0.4048 H   0  0  0  0  0  0  0  0  0  0  0  0
    3.8911    1.2639   -2.0216 H   0  0  0  0  0  0  0  0  0  0  0  0
    4.7411    0.1953   -4.0280 H   0  0  0  0  0  0  0  0  0  0  0  0
    3.6577   -3.0531   -6.9569 H   0  0  0  0  0  0  0  0  0  0  0  0
    4.0102   -4.2889   -9.0619 H   0  0  0  0  0  0  0  0  0  0  0  0
    5.6815   -6.1035   -9.1808 H   0  0  0  0  0  0  0  0  0  0  0  0
    7.2719   -7.5418   -8.1122 H   0  0  0  0  0  0  0  0  0  0  0  0
    7.1298   -7.7052   -6.3591 H   0  0  0  0  0  0  0  0  0  0  0  0
    8.3345   -6.5894   -7.0592 H   0  0  0  0  0  0  0  0  0  0  0  0
    6.7114   -5.3992   -5.0538 H   0  0  0  0  0  0  0  0  0  0  0  0
    3.4472   -3.6222   -2.5660 H   0  0  0  0  0  0  0  0  0  0  0  0
    2.5981   -2.5829   -0.5550 H   0  0  0  0  0  0  0  0  0  0  0  0
  1  2  1  0  0  0  0
  1 19  1  0  0  0  0
  1 20  1  0  0  0  0
  1 21  1  0  0  0  0
  2  3  1  0  0  0  0
  2  4  1  0  0  0  0
  3 22  1  0  0  0  0
  3 23  1  0  0  0  0
  3 24  1  0  0  0  0
  4  5  2  0  0  0  0
  4 18  1  0  0  0  0
  5  6  1  0  0  0  0
  5 25  1  0  0  0  0
  6  7  2  0  0  0  0
  6 26  1  0  0  0  0
  7  8  1  0  0  0  0
  7 17  1  0  0  0  0
  8  9  2  3  0  0  0
  9 10  1  0  0  0  0
 10 11  2  0  0  0  0
 10 16  1  0  0  0  0
 11 12  1  0  0  0  0
 11 27  1  0  0  0  0
 12 13  2  0  0  0  0
 12 28  1  0  0  0  0
 13 14  1  0  0  0  0
 13 29  1  0  0  0  0
 14 15  1  0  0  0  0
 14 16  2  0  0  0  0
 15 30  1  0  0  0  0
 15 31  1  0  0  0  0
 15 32  1  0  0  0  0
 16 33  1  0  0  0  0
 17 18  2  0  0  0  0
 17 34  1  0  0  0  0
 18 35  1  0  0  0  0
M  END
$$$$

 OpenBabel12201709243D

 28 27  0  0  0  0  0  0  0  0999 V2000
    5.6603    2.9170   -0.6907 C   0  0  0  0  0  0  0  0  0  0  0  0
    4.8496    1.4708   -0.0510 S   0  0  0  0  0  0  0  0  0  0  0  0
    5.5294    1.0565    1.1583 O   0  0  0  0  0  0  0  0  0  0  0  0
    3.4185    1.6845   -0.0898 O   0  0  0  0  0  0  0  0  0  0  0  0
    5.2551    0.4428   -1.2496 O   0  0  0  0  0  0  0  0  0  0  0  0
    4.7956   -0.8967   -1.1197 C   0  0  0  0  0  0  0  0  0  0  0  0
    5.2433   -1.7331   -2.3160 C   0  0  0  0  0  0  0  0  0  0  0  0
    6.7690   -1.8225   -2.4289 C   0  0  0  0  0  0  0  0  0  0  0  0
    7.2180   -2.7623   -3.5450 C   0  0  0  0  0  0  0  0  0  0  0  0
    6.7825   -2.2784   -4.8084 O   0  0  0  0  0  0  0  0  0  0  0  0
    7.1641   -3.1901   -6.1070 S   0  0  0  0  0  0  0  0  0  0  0  0
    8.6058   -3.2357   -6.2290 O   0  0  0  0  0  0  0  0  0  0  0  0
    6.3588   -4.3920   -6.0751 O   0  0  0  0  0  0  0  0  0  0  0  0
    6.5232   -2.1061   -7.3596 C   0  0  0  0  0  0  0  0  0  0  0  0
    5.4811    3.7389    0.0063 H   0  0  0  0  0  0  0  0  0  0  0  0
    5.2376    3.1590   -1.6674 H   0  0  0  0  0  0  0  0  0  0  0  0
    6.7315    2.7203   -0.7655 H   0  0  0  0  0  0  0  0  0  0  0  0
    3.7015   -0.8970   -1.0698 H   0  0  0  0  0  0  0  0  0  0  0  0
    5.1852   -1.3289   -0.1910 H   0  0  0  0  0  0  0  0  0  0  0  0
    4.8387   -1.2940   -3.2353 H   0  0  0  0  0  0  0  0  0  0  0  0
    4.8226   -2.7408   -2.2160 H   0  0  0  0  0  0  0  0  0  0  0  0
    7.1861   -2.1791   -1.4802 H   0  0  0  0  0  0  0  0  0  0  0  0
    7.1751   -0.8212   -2.6153 H   0  0  0  0  0  0  0  0  0  0  0  0
    6.8163   -3.7680   -3.3767 H   0  0  0  0  0  0  0  0  0  0  0  0
    8.3122   -2.8213   -3.5430 H   0  0  0  0  0  0  0  0  0  0  0  0
    7.0366   -1.1453   -7.2941 H   0  0  0  0  0  0  0  0  0  0  0  0
    5.4486   -1.9873   -7.2118 H   0  0  0  0  0  0  0  0  0  0  0  0
    6.7172   -2.5654   -8.3318 H   0  0  0  0  0  0  0  0  0  0  0  0
  1  2  1  0  0  0  0
  1 15  1  0  0  0  0
  1 16  1  0  0  0  0
  1 17  1  0  0  0  0
  2  3  2  0  0  0  0
  2  4  2  0  0  0  0
  2  5  1  0  0  0  0
  5  6  1  0  0  0  0
  6  7  1  0  0  0  0
  6 18  1  0  0  0  0
  6 19  1  0  0  0  0
  7  8  1  0  0  0  0
  7 20  1  0  0  0  0
  7 21  1  0  0  0  0
  8  9  1  0  0  0  0
  8 22  1  0  0  0  0
  8 23  1  0  0  0  0
  9 10  1  0  0  0  0
  9 24  1  0  0  0  0
  9 25  1  0  0  0  0
 10 11  1  0  0  0  0
 11 12  2  0  0  0  0
 11 13  2  0  0  0  0
 11 14  1  0  0  0  0
 14 26  1  0  0  0  0
 14 27  1  0  0  0  0
 14 28  1  0  0  0  0
M  END
$$$$

 OpenBabel12201709243D

 44 43  0  0  0  0  0  0  0  0999 V2000
    0.9742    0.1021    0.0282 C   0  0  0  0  0  0  0  0  0  0  0  0
    2.4932    0.0935    0.0168 C   0  0  0  0  0  0  0  0  0  0  0  0
    3.0315   -0.7586   -1.1303 C   0  0  0  0  0  0  0  0  0  0  0  0
    4.5584   -0.7644   -1.1402 C   0  0  0  0  0  0  0  0  0  0  0  0
    5.0964   -1.6164   -2.2869 C   0  0  0  0  0  0  0  0  0  0  0  0
    6.6245   -1.6188   -2.2913 C   0  0  0  0  0  0  0  0  0  0  0  0
    7.1641   -2.4680   -3.4357 C   0  0  0  0  0  0  0  0  0  0  0  0
    8.6925   -2.4692   -3.4415 C   0  0  0  0  0  0  0  0  0  0  0  0
    9.2147   -3.3225   -4.5932 C   0  0  0  0  0  0  0  0  0  0  0  0
   10.7432   -3.3496   -4.6302 C   0  0  0  0  0  0  0  0  0  0  0  0
   11.2091   -4.2183   -5.7981 C   0  0  0  0  0  0  0  0  0  0  0  0
   12.7350   -4.2881   -5.8965 C   0  0  0  0  0  0  0  0  0  0  0  0
   13.2860   -5.1328   -6.9510 N   0  0  0  0  0  0  0  0  0  0  0  0
   12.4428   -5.7927   -7.9316 C   0  0  0  0  0  0  0  0  0  0  0  0
   14.5904   -5.1317   -7.0635 N   0  0  0  0  0  0  0  0  0  0  0  0
   15.0029   -5.8418   -7.9862 O   0  0  0  0  0  0  0  0  0  0  0  0
    0.6041    0.7163    0.8558 H   0  0  0  0  0  0  0  0  0  0  0  0
    0.5763   -0.9092    0.1531 H   0  0  0  0  0  0  0  0  0  0  0  0
    0.5780    0.5163   -0.9038 H   0  0  0  0  0  0  0  0  0  0  0  0
    2.8603   -0.2957    0.9739 H   0  0  0  0  0  0  0  0  0  0  0  0
    2.8612    1.1215   -0.0782 H   0  0  0  0  0  0  0  0  0  0  0  0
    2.6588   -0.3693   -2.0858 H   0  0  0  0  0  0  0  0  0  0  0  0
    2.6602   -1.7862   -1.0330 H   0  0  0  0  0  0  0  0  0  0  0  0
    4.9323   -1.1550   -0.1857 H   0  0  0  0  0  0  0  0  0  0  0  0
    4.9310    0.2625   -1.2380 H   0  0  0  0  0  0  0  0  0  0  0  0
    4.7262   -1.2254   -3.2427 H   0  0  0  0  0  0  0  0  0  0  0  0
    4.7247   -2.6432   -2.1915 H   0  0  0  0  0  0  0  0  0  0  0  0
    6.9961   -2.0088   -1.3360 H   0  0  0  0  0  0  0  0  0  0  0  0
    6.9934   -0.5917   -2.3885 H   0  0  0  0  0  0  0  0  0  0  0  0
    6.7915   -2.0786   -4.3914 H   0  0  0  0  0  0  0  0  0  0  0  0
    6.7943   -3.4969   -3.3402 H   0  0  0  0  0  0  0  0  0  0  0  0
    9.0664   -2.8610   -2.4880 H   0  0  0  0  0  0  0  0  0  0  0  0
    9.0633   -1.4426   -3.5411 H   0  0  0  0  0  0  0  0  0  0  0  0
    8.8322   -2.9259   -5.5403 H   0  0  0  0  0  0  0  0  0  0  0  0
    8.8343   -4.3447   -4.4905 H   0  0  0  0  0  0  0  0  0  0  0  0
   11.1326   -3.7495   -3.6862 H   0  0  0  0  0  0  0  0  0  0  0  0
   11.1326   -2.3305   -4.7401 H   0  0  0  0  0  0  0  0  0  0  0  0
   10.7984   -3.8031   -6.7269 H   0  0  0  0  0  0  0  0  0  0  0  0
   10.8003   -5.2276   -5.6657 H   0  0  0  0  0  0  0  0  0  0  0  0
   13.1153   -4.6515   -4.9313 H   0  0  0  0  0  0  0  0  0  0  0  0
   13.1116   -3.2619   -6.0124 H   0  0  0  0  0  0  0  0  0  0  0  0
   11.3689   -5.6807   -7.7621 H   0  0  0  0  0  0  0  0  0  0  0  0
   12.6274   -6.8742   -7.9233 H   0  0  0  0  0  0  0  0  0  0  0  0
   12.6300   -5.4153   -8.9440 H   0  0  0  0  0  0  0  0  0  0  0  0
  1  2  1  0  0  0  0
  1 17  1  0  0  0  0
  1 18  1  0  0  0  0
  1 19  1  0  0  0  0
  2  3  1  0  0  0  0
  2 20  1  0  0  0  0
  2 21  1  0  0  0  0
  3  4  1  0  0  0  0
  3 22  1  0  0  0  0
  3 23  1  0  0  0  0
  4  5  1  0  0  0  0
  4 24  1  0  0  0  0
  4 25  1  0  0  0  0
  5  6  1  0  0  0  0
  5 26  1  0  0  0  0
  5 27  1  0  0  0  0
  6  7  1  0  0  0  0
  6 28  1  0  0  0  0
  6 29  1  0  0  0  0
  7  8  1  0  0  0  0
  7 30  1  0  0  0  0
  7 31  1  0  0  0  0
  8  9  1  0  0  0  0
  8 32  1  0  0  0  0
  8 33  1  0  0  0  0
  9 10  1  0  0  0  0
  9 34  1  0  0  0  0
  9 35  1  0  0  0  0
 10 11  1  0  0  0  0
 10 36  1  0  0  0  0
 10 37  1  0  0  0  0
 11 12  1  0  0  0  0
 11 38  1  0  0  0  0
 11 39  1  0  0  0  0
 12 13  1  0  0  0  0
 12 40  1  0  0  0  0
 12 41  1  0  0  0  0
 13 14  1  0  0  0  0
 13 15  1  0  0  0  0
 14 42  1  0  0  0  0
 14 43  1  0  0  0  0
 14 44  1  0  0  0  0
 15 16  2  0  0  0  0
M  END
$$$$

 OpenBabel12201709243D

 18 18  0  0  0  0  0  0  0  0999 V2000
    0.9698    0.0641   -0.0525 C   0  0  0  0  0  0  0  0  0  0  0  0
    2.4564    0.0514   -0.0566 C   0  0  0  0  0  0  0  0  0  0  0  0
    3.2258    1.1177   -0.0633 N   0  0  0  0  0  0  0  0  0  0  0  0
    4.5093    0.6507   -0.0657 C   0  0  0  0  0  0  0  0  0  0  0  0
    4.5465   -0.7297   -0.0607 C   0  0  0  0  0  0  0  0  0  0  0  0
    5.6954   -1.5434   -0.0618 N   0  0  0  0  0  0  0  0  0  0  0  0
    5.5636   -2.7477   -0.0558 O   0  0  0  0  0  0  0  0  0  0  0  0
    6.9760   -1.0196   -0.0697 O   0  0  0  0  0  0  0  0  0  0  0  0
    3.2168   -1.1030   -0.0544 N   0  0  0  0  0  0  0  0  0  0  0  0
    2.6443   -2.4300   -0.0467 C   0  0  0  0  0  0  0  0  0  0  0  0
    0.5969    1.0932   -0.0495 H   0  0  0  0  0  0  0  0  0  0  0  0
    0.5794   -0.4380    0.8378 H   0  0  0  0  0  0  0  0  0  0  0  0
    0.5751   -0.4346   -0.9428 H   0  0  0  0  0  0  0  0  0  0  0  0
    5.3282    1.3582   -0.0710 H   0  0  0  0  0  0  0  0  0  0  0  0
    6.8279   -0.0685   -0.0749 H   0  0  0  0  0  0  0  0  0  0  0  0
    3.4016   -3.2081   -0.0480 H   0  0  0  0  0  0  0  0  0  0  0  0
    2.0235   -2.5395   -0.9402 H   0  0  0  0  0  0  0  0  0  0  0  0
    2.0330   -2.5331    0.8541 H   0  0  0  0  0  0  0  0  0  0  0  0
  1  2  1  0  0  0  0
  1 11  1  0  0  0  0
  1 12  1  0  0  0  0
  1 13  1  0  0  0  0
  2  3  2  0  0  0  0
  2  9  1  0  0  0  0
  3  4  1  0  0  0  0
  4  5  2  0  0  0  0
  4 14  1  0  0  0  0
  5  6  1  0  0  0  0
  5  9  1  0  0  0  0
  6  7  2  0  0  0  0
  6  8  1  0  0  0  0
  8 15  1  0  0  0  0
  9 10  1  0  0  0  0
 10 16  1  0  0  0  0
 10 17  1  0  0  0  0
 10 18  1  0  0  0  0
M  END
$$$$

 OpenBabel12201709243D

 47 50  0  0  1  0  0  0  0  0999 V2000
    2.7042   -0.1480    0.6515 O   0  0  0  0  0  0  0  0  0  0  0  0
    2.6205   -0.2527   -0.5750 C   0  0  0  0  0  0  0  0  0  0  0  0
    1.6200   -1.2122   -1.2246 C   0  0  0  0  0  0  0  0  0  0  0  0
    0.8137   -1.9450   -0.1335 C   0  0  0  0  0  0  0  0  0  0  0  0
   -0.1392   -1.0209    0.6371 C   0  0  0  0  0  0  0  0  0  0  0  0
   -1.0220   -0.1688   -0.2687 C   0  0  0  0  0  0  0  0  0  0  0  0
   -0.2677    0.4837   -1.4240 C   0  0  0  0  0  0  0  0  0  0  0  0
    0.6317   -0.5060   -2.1644 C   0  0  0  0  0  0  0  0  0  0  0  0
    3.3872    0.5613   -1.3793 N   0  0  0  0  0  0  0  0  0  0  0  0
    4.0064    1.6955   -0.6992 C   0  0  0  0  0  0  0  0  0  0  0  0
    4.6721    2.5893   -1.7422 C   0  0  3  0  0  0  0  0  0  0  0  0
    5.8145    1.8673   -2.2645 N   0  0  0  0  0  0  0  0  0  0  0  0
    7.0764    2.0092   -1.5370 C   0  0  0  0  0  0  0  0  0  0  0  0
    7.3967    3.4303   -1.0206 C   0  0  0  0  0  0  0  0  0  0  0  0
    6.2118    4.3365   -0.7921 C   0  0  0  0  0  0  0  0  0  0  0  0
    6.3549    5.6054   -0.2142 C   0  0  0  0  0  0  0  0  0  0  0  0
    5.2550    6.4738   -0.0977 C   0  0  0  0  0  0  0  0  0  0  0  0
    4.0025    6.0979   -0.5684 C   0  0  0  0  0  0  0  0  0  0  0  0
    3.8490    4.8404   -1.1227 C   0  0  0  0  0  0  0  0  0  0  0  0
    4.9427    3.9571   -1.2161 C   0  0  0  0  0  0  0  0  0  0  0  0
    5.4948    0.5747   -2.7579 C   0  0  0  0  0  0  0  0  0  0  0  0
    6.3334   -0.1801   -3.2399 O   0  0  0  0  0  0  0  0  0  0  0  0
    3.9696    0.2044   -2.6970 C   0  0  0  0  0  0  0  0  0  0  0  0
    2.1947   -1.9580   -1.7853 H   0  0  0  0  0  0  0  0  0  0  0  0
    1.4919   -2.4372    0.5747 H   0  0  0  0  0  0  0  0  0  0  0  0
    0.2249   -2.7413   -0.6043 H   0  0  0  0  0  0  0  0  0  0  0  0
    0.4246   -0.3576    1.3024 H   0  0  0  0  0  0  0  0  0  0  0  0
   -0.7736   -1.6260    1.2944 H   0  0  0  0  0  0  0  0  0  0  0  0
   -1.5089    0.6106    0.3313 H   0  0  0  0  0  0  0  0  0  0  0  0
   -1.8230   -0.7983   -0.6731 H   0  0  0  0  0  0  0  0  0  0  0  0
    0.3335    1.3202   -1.0486 H   0  0  0  0  0  0  0  0  0  0  0  0
   -0.9935    0.9128   -2.1258 H   0  0  0  0  0  0  0  0  0  0  0  0
    1.1502    0.0121   -2.9773 H   0  0  0  0  0  0  0  0  0  0  0  0
   -0.0036   -1.2656   -2.6405 H   0  0  0  0  0  0  0  0  0  0  0  0
    4.7480    1.2927    0.0078 H   0  0  0  0  0  0  0  0  0  0  0  0
    3.2501    2.2166   -0.1023 H   0  0  0  0  0  0  0  0  0  0  0  0
    3.9977    2.7284   -2.5985 H   0  0  0  0  0  0  0  0  0  0  0  0
    7.9015    1.6341   -2.1558 H   0  0  0  0  0  0  0  0  0  0  0  0
    7.0206    1.3276   -0.6762 H   0  0  0  0  0  0  0  0  0  0  0  0
    8.0525    3.9238   -1.7478 H   0  0  0  0  0  0  0  0  0  0  0  0
    7.9669    3.3384   -0.0857 H   0  0  0  0  0  0  0  0  0  0  0  0
    7.3249    5.9399    0.1484 H   0  0  0  0  0  0  0  0  0  0  0  0
    5.3805    7.4529    0.3554 H   0  0  0  0  0  0  0  0  0  0  0  0
    3.1543    6.7701   -0.5006 H   0  0  0  0  0  0  0  0  0  0  0  0
    2.8657    4.5356   -1.4820 H   0  0  0  0  0  0  0  0  0  0  0  0
    3.8286   -0.8569   -2.9067 H   0  0  0  0  0  0  0  0  0  0  0  0
    3.4437    0.7878   -3.4634 H   0  0  0  0  0  0  0  0  0  0  0  0
  1  2  2  0  0  0  0
  2  3  1  0  0  0  0
  2  9  1  0  0  0  0
  3  4  1  0  0  0  0
  3  8  1  0  0  0  0
  3 24  1  0  0  0  0
  4  5  1  0  0  0  0
  4 25  1  0  0  0  0
  4 26  1  0  0  0  0
  5  6  1  0  0  0  0
  5 27  1  0  0  0  0
  5 28  1  0  0  0  0
  6  7  1  0  0  0  0
  6 29  1  0  0  0  0
  6 30  1  0  0  0  0
  7  8  1  0  0  0  0
  7 31  1  0  0  0  0
  7 32  1  0  0  0  0
  8 33  1  0  0  0  0
  8 34  1  0  0  0  0
  9 10  1  0  0  0  0
  9 23  1  0  0  0  0
 10 11  1  0  0  0  0
 10 35  1  0  0  0  0
 10 36  1  0  0  0  0
 11 12  1  0  0  0  0
 11 20  1  0  0  0  0
 11 37  1  0  0  0  0
 12 13  1  0  0  0  0
 12 21  1  0  0  0  0
 13 14  1  0  0  0  0
 13 38  1  0  0  0  0
 13 39  1  0  0  0  0
 14 15  1  0  0  0  0
 14 40  1  0  0  0  0
 14 41  1  0  0  0  0
 15 16  2  0  0  0  0
 15 20  1  0  0  0  0
 16 17  1  0  0  0  0
 16 42  1  0  0  0  0
 17 18  2  0  0  0  0
 17 43  1  0  0  0  0
 18 19  1  0  0  0  0
 18 44  1  0  0  0  0
 19 20  2  0  0  0  0
 19 45  1  0  0  0  0
 21 22  2  0  0  0  0
 21 23  1  0  0  0  0
 23 46  1  0  0  0  0
 23 47  1  0  0  0  0
M  END
$$$$

 OpenBabel12201709243D

 16 16  0  0  0  0  0  0  0  0999 V2000
    1.7055   -1.0004    0.9598 O   0  0  0  0  0  0  0  0  0  0  0  0
    1.9709    0.0631    0.3904 N   0  0  0  0  0  0  0  0  0  0  0  0
    2.5185    0.9286    1.2183 N   0  0  0  0  0  0  0  0  0  0  0  0
    2.6507    2.2662    0.6175 C   0  0  0  0  0  0  0  0  0  0  0  0
    3.0888    3.3276    1.6437 C   0  0  0  0  0  0  0  0  0  0  0  0
    4.1310    2.8346    2.6036 C   0  0  0  0  0  0  0  0  0  0  0  0
    4.4672    1.5387    2.6562 C   0  0  0  0  0  0  0  0  0  0  0  0
    3.8064    0.4898    1.7983 C   0  0  0  0  0  0  0  0  0  0  0  0
    1.6890    2.5942    0.1979 H   0  0  0  0  0  0  0  0  0  0  0  0
    3.3671    2.2462   -0.2163 H   0  0  0  0  0  0  0  0  0  0  0  0
    2.2207    3.6675    2.2209 H   0  0  0  0  0  0  0  0  0  0  0  0
    3.4823    4.1972    1.1043 H   0  0  0  0  0  0  0  0  0  0  0  0
    4.6091    3.5567    3.2600 H   0  0  0  0  0  0  0  0  0  0  0  0
    5.2352    1.2031    3.3487 H   0  0  0  0  0  0  0  0  0  0  0  0
    3.6422   -0.3904    2.4339 H   0  0  0  0  0  0  0  0  0  0  0  0
    4.5169    0.1995    1.0123 H   0  0  0  0  0  0  0  0  0  0  0  0
  1  2  2  0  0  0  0
  2  3  1  0  0  0  0
  3  4  1  0  0  0  0
  3  8  1  0  0  0  0
  4  5  1  0  0  0  0
  4  9  1  0  0  0  0
  4 10  1  0  0  0  0
  5  6  1  0  0  0  0
  5 11  1  0  0  0  0
  5 12  1  0  0  0  0
  6  7  2  0  0  0  0
  6 13  1  0  0  0  0
  7  8  1  0  0  0  0
  7 14  1  0  0  0  0
  8 15  1  0  0  0  0
  8 16  1  0  0  0  0
M  END
$$$$

 OpenBabel12201709243D

 21 21  0  0  0  0  0  0  0  0999 V2000
    1.4784   -0.5186    0.3421 O   0  0  0  0  0  0  0  0  0  0  0  0
    1.8279    0.6514    0.1551 N   0  0  0  0  0  0  0  0  0  0  0  0
    2.9608    0.9246    0.7655 N   0  0  0  0  0  0  0  0  0  0  0  0
    2.9927    0.7147    2.2190 C   0  0  0  0  0  0  0  0  0  0  0  0
    2.3591    1.8078    3.0881 C   0  0  0  0  0  0  0  0  0  0  0  0
    3.2021    3.0852    3.1590 C   0  0  0  0  0  0  0  0  0  0  0  0
    3.1093    4.0389    2.0465 N   0  0  0  0  0  0  0  0  0  0  0  0
    2.7492    3.4594    0.7424 C   0  0  0  0  0  0  0  0  0  0  0  0
    3.5561    2.2036    0.3549 C   0  0  0  0  0  0  0  0  0  0  0  0
    2.4350    5.1242    2.3599 N   0  0  0  0  0  0  0  0  0  0  0  0
    2.7218    6.0589    1.6035 O   0  0  0  0  0  0  0  0  0  0  0  0
    4.0419    0.5893    2.5191 H   0  0  0  0  0  0  0  0  0  0  0  0
    2.5268   -0.2451    2.4821 H   0  0  0  0  0  0  0  0  0  0  0  0
    2.2852    1.4069    4.1078 H   0  0  0  0  0  0  0  0  0  0  0  0
    1.3293    2.0232    2.7797 H   0  0  0  0  0  0  0  0  0  0  0  0
    4.2588    2.8032    3.2603 H   0  0  0  0  0  0  0  0  0  0  0  0
    2.9692    3.5849    4.1118 H   0  0  0  0  0  0  0  0  0  0  0  0
    2.9501    4.2036   -0.0415 H   0  0  0  0  0  0  0  0  0  0  0  0
    1.6683    3.2639    0.6861 H   0  0  0  0  0  0  0  0  0  0  0  0
    4.5862    2.2770    0.7298 H   0  0  0  0  0  0  0  0  0  0  0  0
    3.6689    2.1963   -0.7392 H   0  0  0  0  0  0  0  0  0  0  0  0
  1  2  2  0  0  0  0
  2  3  1  0  0  0  0
  3  4  1  0  0  0  0
  3  9  1  0  0  0  0
  4  5  1  0  0  0  0
  4 12  1  0  0  0  0
  4 13  1  0  0  0  0
  5  6  1  0  0  0  0
  5 14  1  0  0  0  0
  5 15  1  0  0  0  0
  6  7  1  0  0  0  0
  6 16  1  0  0  0  0
  6 17  1  0  0  0  0
  7  8  1  0  0  0  0
  7 10  1  0  0  0  0
  8  9  1  0  0  0  0
  8 18  1  0  0  0  0
  8 19  1  0  0  0  0
  9 20  1  0  0  0  0
  9 21  1  0  0  0  0
 10 11  2  0  0  0  0
M  END
$$$$

 OpenBabel12201709243D

 22 22  0  0  0  0  0  0  0  0999 V2000
    1.2404   -0.1328   -0.6616 C   0  0  0  0  0  0  0  0  0  0  0  0
    2.6689   -0.0872   -0.6669 O   0  0  0  0  0  0  0  0  0  0  0  0
    3.1746    1.1717   -0.6715 C   0  0  0  0  0  0  0  0  0  0  0  0
    2.5138    2.1971   -0.6882 O   0  0  0  0  0  0  0  0  0  0  0  0
    4.6614    1.1396   -0.6528 C   0  0  0  0  0  0  0  0  0  0  0  0
    5.3117    2.3170   -0.6305 C   0  0  0  0  0  0  0  0  0  0  0  0
    6.8011    2.3903   -0.6189 C   0  0  0  0  0  0  0  0  0  0  0  0
    7.5185    1.0467   -0.8230 C   0  0  0  0  0  0  0  0  0  0  0  0
    6.8087   -0.1239   -0.2692 N   0  0  0  0  0  0  0  0  0  0  0  0
    5.3834   -0.1785   -0.6546 C   0  0  0  0  0  0  0  0  0  0  0  0
    7.3920   -1.2996   -0.4378 N   0  0  0  0  0  0  0  0  0  0  0  0
    8.6241   -1.2488   -0.3678 O   0  0  0  0  0  0  0  0  0  0  0  0
    0.9321   -1.1758   -0.5421 H   0  0  0  0  0  0  0  0  0  0  0  0
    0.8487    0.2386   -1.6135 H   0  0  0  0  0  0  0  0  0  0  0  0
    0.8318    0.4428    0.1758 H   0  0  0  0  0  0  0  0  0  0  0  0
    4.7658    3.2569   -0.6143 H   0  0  0  0  0  0  0  0  0  0  0  0
    7.1109    2.8370    0.3354 H   0  0  0  0  0  0  0  0  0  0  0  0
    7.1252    3.0805   -1.4103 H   0  0  0  0  0  0  0  0  0  0  0  0
    8.5003    1.1506   -0.3366 H   0  0  0  0  0  0  0  0  0  0  0  0
    7.7112    0.9043   -1.8943 H   0  0  0  0  0  0  0  0  0  0  0  0
    4.8858   -0.8534    0.0563 H   0  0  0  0  0  0  0  0  0  0  0  0
    5.2728   -0.6156   -1.6580 H   0  0  0  0  0  0  0  0  0  0  0  0
  1  2  1  0  0  0  0
  1 13  1  0  0  0  0
  1 14  1  0  0  0  0
  1 15  1  0  0  0  0
  2  3  1  0  0  0  0
  3  4  2  0  0  0  0
  3  5  1  0  0  0  0
  5  6  2  0  0  0  0
  5 10  1  0  0  0  0
  6  7  1  0  0  0  0
  6 16  1  0  0  0  0
  7  8  1  0  0  0  0
  7 17  1  0  0  0  0
  7 18  1  0  0  0  0
  8  9  1  0  0  0  0
  8 19  1  0  0  0  0
  8 20  1  0  0  0  0
  9 10  1  0  0  0  0
  9 11  1  0  0  0  0
 10 21  1  0  0  0  0
 10 22  1  0  0  0  0
 11 12  2  0  0  0  0
M  END
$$$$

 OpenBabel12201709243D

 11 11  0  0  1  0  0  0  0  0999 V2000
    3.2805   -1.1182   -0.4487 O   0  0  0  0  0  0  0  0  0  0  0  0
    2.4974    0.0218   -0.1224 C   0  0  0  0  0  0  0  0  0  0  0  0
    3.0349    0.6289    1.1241 C   0  0  3  0  0  0  0  0  0  0  0  0
    4.3547    1.3526    1.1254 C   0  0  0  0  0  0  0  0  0  0  0  0
    3.1056    2.0613    1.1214 O   0  0  0  0  0  0  0  0  0  0  0  0
    2.9364   -1.4612   -1.2899 H   0  0  0  0  0  0  0  0  0  0  0  0
    1.4612   -0.2976    0.0280 H   0  0  0  0  0  0  0  0  0  0  0  0
    2.5312    0.7202   -0.9639 H   0  0  0  0  0  0  0  0  0  0  0  0
    2.7182    0.1242    2.0255 H   0  0  0  0  0  0  0  0  0  0  0  0
    4.9431    1.3513    0.2176 H   0  0  0  0  0  0  0  0  0  0  0  0
    4.9313    1.3586    2.0412 H   0  0  0  0  0  0  0  0  0  0  0  0
  1  2  1  0  0  0  0
  1  6  1  0  0  0  0
  2  3  1  0  0  0  0
  2  7  1  0  0  0  0
  2  8  1  0  0  0  0
  3  4  1  0  0  0  0
  3  5  1  0  0  0  0
  3  9  1  0  0  0  0
  4  5  1  0  0  0  0
  4 10  1  0  0  0  0
  4 11  1  0  0  0  0
M  END
$$$$

 OpenBabel12201709243D

 34 35  0  0  0  0  0  0  0  0999 V2000
    2.8958   -1.8946   -1.3572 C   0  0  0  0  0  0  0  0  0  0  0  0
    2.4624   -0.6674   -2.0307 N   0  0  0  0  0  0  0  0  0  0  0  0
    1.0008   -0.6242   -2.0821 C   0  0  0  0  0  0  0  0  0  0  0  0
    2.9784    0.5212   -1.3452 C   0  0  0  0  0  0  0  0  0  0  0  0
    4.4322    0.5393   -1.2904 N   0  0  0  0  0  0  0  0  0  0  0  0
    5.0611    1.1280   -2.2342 C   0  0  0  0  0  0  0  0  0  0  0  0
    6.4072    1.2128   -2.4103 N   0  0  0  0  0  0  0  0  0  0  0  0
    7.0515    0.6886   -1.8309 H   0  0  0  0  0  0  0  0  0  0  0  0
    6.7497    1.8042   -3.5780 N   0  0  0  0  0  0  0  0  0  0  0  0
    5.5887    2.1494   -4.0427 C   0  0  0  0  0  0  0  0  0  0  0  0
    5.3412    2.8414   -5.3044 C   0  0  0  0  0  0  0  0  0  0  0  0
    4.2512    3.5832   -5.5410 C   0  0  0  0  0  0  0  0  0  0  0  0
    4.1109    4.2670   -6.7826 C   0  0  0  0  0  0  0  0  0  0  0  0
    3.1093    5.1393   -7.1909 C   0  0  0  0  0  0  0  0  0  0  0  0
    3.4005    5.5529   -8.5135 C   0  0  0  0  0  0  0  0  0  0  0  0
    4.5741    4.9249   -8.8701 C   0  0  0  0  0  0  0  0  0  0  0  0
    5.0063    4.1550   -7.8264 O   0  0  0  0  0  0  0  0  0  0  0  0
    5.2520    5.0286  -10.1005 N   0  0  0  0  0  0  0  0  0  0  0  0
    4.8008    5.7276  -10.9837 O   0  0  0  0  0  0  0  0  0  0  0  0
    6.4318    4.3289  -10.2937 O   0  0  0  0  0  0  0  0  0  0  0  0
    4.5078    1.7907   -3.2950 O   0  0  0  0  0  0  0  0  0  0  0  0
    2.5165   -2.7753   -1.8887 H   0  0  0  0  0  0  0  0  0  0  0  0
    2.5462   -1.9454   -0.3194 H   0  0  0  0  0  0  0  0  0  0  0  0
    3.9872   -1.9880   -1.3595 H   0  0  0  0  0  0  0  0  0  0  0  0
    0.6090   -1.4926   -2.6240 H   0  0  0  0  0  0  0  0  0  0  0  0
    0.6598    0.2634   -2.6261 H   0  0  0  0  0  0  0  0  0  0  0  0
    0.5498   -0.6117   -1.0828 H   0  0  0  0  0  0  0  0  0  0  0  0
    2.6072    0.5549   -0.3119 H   0  0  0  0  0  0  0  0  0  0  0  0
    2.5909    1.4306   -1.8226 H   0  0  0  0  0  0  0  0  0  0  0  0
    6.1482    2.7575   -6.0247 H   0  0  0  0  0  0  0  0  0  0  0  0
    3.4722    3.6995   -4.7929 H   0  0  0  0  0  0  0  0  0  0  0  0
    2.2579    5.4416   -6.5956 H   0  0  0  0  0  0  0  0  0  0  0  0
    2.8280    6.2259   -9.1395 H   0  0  0  0  0  0  0  0  0  0  0  0
    6.5257    3.8805   -9.4378 H   0  0  0  0  0  0  0  0  0  0  0  0
  1  2  1  0  0  0  0
  1 22  1  0  0  0  0
  1 23  1  0  0  0  0
  1 24  1  0  0  0  0
  2  3  1  0  0  0  0
  2  4  1  0  0  0  0
  3 25  1  0  0  0  0
  3 26  1  0  0  0  0
  3 27  1  0  0  0  0
  4  5  1  0  0  0  0
  4 28  1  0  0  0  0
  4 29  1  0  0  0  0
  5  6  2  3  0  0  0
  6  7  1  0  0  0  0
  6 21  1  0  0  0  0
  7  8  1  0  0  0  0
  7  9  1  0  0  0  0
  9 10  2  0  0  0  0
 10 11  1  0  0  0  0
 10 21  1  0  0  0  0
 11 12  2  3  0  0  0
 11 30  1  0  0  0  0
 12 13  1  0  0  0  0
 12 31  1  0  0  0  0
 13 14  2  0  0  0  0
 13 17  1  0  0  0  0
 14 15  1  0  0  0  0
 14 32  1  0  0  0  0
 15 16  2  0  0  0  0
 15 33  1  0  0  0  0
 16 17  1  0  0  0  0
 16 18  1  0  0  0  0
 18 19  2  0  0  0  0
 18 20  1  0  0  0  0
 20 34  1  0  0  0  0
M  END
$$$$

 OpenBabel12201709243D

 15 15  0  0  0  0  0  0  0  0999 V2000
    0.9914    0.0104   -0.0556 C   0  0  0  0  0  0  0  0  0  0  0  0
    2.4880    0.0827   -0.0550 C   0  0  0  0  0  0  0  0  0  0  0  0
    3.1457    1.2949   -0.0588 C   0  0  0  0  0  0  0  0  0  0  0  0
    4.5186    1.2254   -0.0584 C   0  0  0  0  0  0  0  0  0  0  0  0
    5.2804    2.3577   -0.0617 O   0  0  0  0  0  0  0  0  0  0  0  0
    5.2180    0.0877   -0.0548 N   0  0  0  0  0  0  0  0  0  0  0  0
    4.4910   -1.0353   -0.0516 C   0  0  0  0  0  0  0  0  0  0  0  0
    5.3814   -2.5612   -0.0472 S   0  0  0  0  0  0  0  0  0  0  0  0
    3.1486   -1.0920   -0.0516 N   0  0  0  0  0  0  0  0  0  0  0  0
    0.5366    1.0060   -0.0519 H   0  0  0  0  0  0  0  0  0  0  0  0
    0.6448   -0.5262    0.8331 H   0  0  0  0  0  0  0  0  0  0  0  0
    0.6453   -0.5197   -0.9484 H   0  0  0  0  0  0  0  0  0  0  0  0
    2.6106    2.2334   -0.0618 H   0  0  0  0  0  0  0  0  0  0  0  0
    4.6940    3.1280   -0.0642 H   0  0  0  0  0  0  0  0  0  0  0  0
    6.5748   -1.9557   -0.0478 H   0  0  0  0  0  0  0  0  0  0  0  0
  1  2  1  0  0  0  0
  1 10  1  0  0  0  0
  1 11  1  0  0  0  0
  1 12  1  0  0  0  0
  2  3  2  0  0  0  0
  2  9  1  0  0  0  0
  3  4  1  0  0  0  0
  3 13  1  0  0  0  0
  4  5  1  0  0  0  0
  4  6  2  0  0  0  0
  5 14  1  0  0  0  0
  6  7  1  0  0  0  0
  7  8  1  0  0  0  0
  7  9  2  0  0  0  0
  8 15  1  0  0  0  0
M  END
$$$$

 OpenBabel12201709243D

  5  4  0  0  0  0  0  0  0  0999 V2000
    0.9739   -0.0919    0.0311 Cl  0  0  0  0  0  0  0  0  0  0  0  0
    2.7556   -0.0919    0.0311 C   0  0  0  0  0  0  0  0  0  0  0  0
    3.3495   -0.8893   -1.4474 Cl  0  0  0  0  0  0  0  0  0  0  0  0
    3.3495    1.5873    0.0797 Cl  0  0  0  0  0  0  0  0  0  0  0  0
    3.3495   -0.9736    1.4609 Cl  0  0  0  0  0  0  0  0  0  0  0  0
  1  2  1  0  0  0  0
  2  3  1  0  0  0  0
  2  4  1  0  0  0  0
  2  5  1  0  0  0  0
M  END
$$$$

 OpenBabel12201709243D

 81 80  0  0  0  0  0  0  0  0999 V2000
    5.5112   -2.5781   -0.2419 C   0  0  0  0  0  0  0  0  0  0  0  0
    4.8768   -1.2130    0.0330 C   0  0  0  0  0  0  0  0  0  0  0  0
    5.1992   -0.2438   -1.1076 C   0  0  0  0  0  0  0  0  0  0  0  0
    4.5779    1.1455   -0.9085 C   0  0  0  0  0  0  0  0  0  0  0  0
    5.0821    2.3662   -2.6105 Sn  0  0  0  0  0  0  0  0  0  0  0  0
    4.2469    1.1129   -4.1960 C   0  0  0  0  0  0  0  0  0  0  0  0
    2.7204    1.0826   -4.1165 C   0  0  0  0  0  0  0  0  0  0  0  0
    2.1304    0.3572   -5.3330 C   0  0  0  0  0  0  0  0  0  0  0  0
    0.6080    0.2931   -5.2780 C   0  0  0  0  0  0  0  0  0  0  0  0
    3.9047    4.1958   -2.5812 C   0  0  0  0  0  0  0  0  0  0  0  0
    4.0704    5.0939   -1.3491 C   0  0  0  0  0  0  0  0  0  0  0  0
    3.1880    6.3495   -1.4980 C   0  0  0  0  0  0  0  0  0  0  0  0
    3.2993    7.2932   -0.3037 C   0  0  0  0  0  0  0  0  0  0  0  0
    7.0987    2.5240   -2.5789 O   0  0  0  0  0  0  0  0  0  0  0  0
    7.8670    3.7294   -4.0021 Sn  0  0  0  0  0  0  0  0  0  0  0  0
   10.0212    3.8428   -3.9350 C   0  0  0  0  0  0  0  0  0  0  0  0
   10.6854    2.4786   -4.1018 C   0  0  0  0  0  0  0  0  0  0  0  0
   12.2152    2.6243   -4.1119 C   0  0  0  0  0  0  0  0  0  0  0  0
   12.9058    1.2667   -4.2318 C   0  0  0  0  0  0  0  0  0  0  0  0
    7.3596    3.2244   -6.0127 C   0  0  0  0  0  0  0  0  0  0  0  0
    5.9163    3.6739   -6.2120 C   0  0  0  0  0  0  0  0  0  0  0  0
    5.2873    3.1773   -7.5090 C   0  0  0  0  0  0  0  0  0  0  0  0
    5.8187    3.9368   -8.7119 C   0  0  0  0  0  0  0  0  0  0  0  0
    7.2159    5.7551   -3.8670 C   0  0  0  0  0  0  0  0  0  0  0  0
    7.6569    6.3630   -2.5525 C   0  0  0  0  0  0  0  0  0  0  0  0
    7.1310    7.7929   -2.4371 C   0  0  0  0  0  0  0  0  0  0  0  0
    7.5283    8.4018   -1.0990 C   0  0  0  0  0  0  0  0  0  0  0  0
    5.2758   -3.2806    0.5842 H   0  0  0  0  0  0  0  0  0  0  0  0
    6.6153   -2.4808   -0.3224 H   0  0  0  0  0  0  0  0  0  0  0  0
    5.1188   -3.0043   -1.1909 H   0  0  0  0  0  0  0  0  0  0  0  0
    5.2725   -0.8144    0.9908 H   0  0  0  0  0  0  0  0  0  0  0  0
    3.7757   -1.3416    0.1223 H   0  0  0  0  0  0  0  0  0  0  0  0
    4.7921   -0.6804   -2.0430 H   0  0  0  0  0  0  0  0  0  0  0  0
    6.2991   -0.1340   -1.2028 H   0  0  0  0  0  0  0  0  0  0  0  0
    4.9691    1.6152    0.0220 H   0  0  0  0  0  0  0  0  0  0  0  0
    3.4726    1.0618   -0.8341 H   0  0  0  0  0  0  0  0  0  0  0  0
    4.6563    0.0892   -4.1338 H   0  0  0  0  0  0  0  0  0  0  0  0
    4.5107    1.4685   -5.1984 H   0  0  0  0  0  0  0  0  0  0  0  0
    2.3229    2.1203   -4.1107 H   0  0  0  0  0  0  0  0  0  0  0  0
    2.4108    0.5811   -3.1705 H   0  0  0  0  0  0  0  0  0  0  0  0
    2.5339   -0.6760   -5.3894 H   0  0  0  0  0  0  0  0  0  0  0  0
    2.4233    0.9058   -6.2568 H   0  0  0  0  0  0  0  0  0  0  0  0
    0.2798   -0.2772   -4.3843 H   0  0  0  0  0  0  0  0  0  0  0  0
    0.2296   -0.2197   -6.1882 H   0  0  0  0  0  0  0  0  0  0  0  0
    0.1750    1.3158   -5.2432 H   0  0  0  0  0  0  0  0  0  0  0  0
    2.8395    3.8907   -2.6353 H   0  0  0  0  0  0  0  0  0  0  0  0
    4.1443    4.7608   -3.5024 H   0  0  0  0  0  0  0  0  0  0  0  0
    5.1265    5.4025   -1.2444 H   0  0  0  0  0  0  0  0  0  0  0  0
    3.7753    4.5330   -0.4348 H   0  0  0  0  0  0  0  0  0  0  0  0
    2.1235    6.0469   -1.6056 H   0  0  0  0  0  0  0  0  0  0  0  0
    3.4893    6.9058   -2.4128 H   0  0  0  0  0  0  0  0  0  0  0  0
    2.9657    6.7868    0.6260 H   0  0  0  0  0  0  0  0  0  0  0  0
    2.6479    8.1787   -0.4721 H   0  0  0  0  0  0  0  0  0  0  0  0
    4.3442    7.6476   -0.1787 H   0  0  0  0  0  0  0  0  0  0  0  0
   10.3274    4.3018   -2.9728 H   0  0  0  0  0  0  0  0  0  0  0  0
   10.3366    4.5159   -4.7645 H   0  0  0  0  0  0  0  0  0  0  0  0
   10.3542    2.0195   -5.0578 H   0  0  0  0  0  0  0  0  0  0  0  0
   10.3746    1.8253   -3.2588 H   0  0  0  0  0  0  0  0  0  0  0  0
   12.5568    3.1090   -3.1722 H   0  0  0  0  0  0  0  0  0  0  0  0
   12.5247    3.2587   -4.9718 H   0  0  0  0  0  0  0  0  0  0  0  0
   12.6431    0.6236   -3.3659 H   0  0  0  0  0  0  0  0  0  0  0  0
   14.0079    1.4102   -4.2441 H   0  0  0  0  0  0  0  0  0  0  0  0
   12.6046    0.7576   -5.1723 H   0  0  0  0  0  0  0  0  0  0  0  0
    7.4896    2.1266   -6.1348 H   0  0  0  0  0  0  0  0  0  0  0  0
    8.0295    3.7546   -6.7263 H   0  0  0  0  0  0  0  0  0  0  0  0
    5.8293    4.7737   -6.1327 H   0  0  0  0  0  0  0  0  0  0  0  0
    5.3471    3.2874   -5.3711 H   0  0  0  0  0  0  0  0  0  0  0  0
    4.1935    3.3561   -7.4438 H   0  0  0  0  0  0  0  0  0  0  0  0
    5.4459    2.0783   -7.6235 H   0  0  0  0  0  0  0  0  0  0  0  0
    5.6229    5.0226   -8.5698 H   0  0  0  0  0  0  0  0  0  0  0  0
    5.2888    3.5989   -9.6250 H   0  0  0  0  0  0  0  0  0  0  0  0
    6.9073    3.7732   -8.8383 H   0  0  0  0  0  0  0  0  0  0  0  0
    6.1137    5.7758   -3.9515 H   0  0  0  0  0  0  0  0  0  0  0  0
    7.6507    6.3214   -4.7209 H   0  0  0  0  0  0  0  0  0  0  0  0
    8.7674    6.3555   -2.4973 H   0  0  0  0  0  0  0  0  0  0  0  0
    7.2697    5.7519   -1.7166 H   0  0  0  0  0  0  0  0  0  0  0  0
    6.0257    7.8024   -2.5202 H   0  0  0  0  0  0  0  0  0  0  0  0
    7.5571    8.4128   -3.2594 H   0  0  0  0  0  0  0  0  0  0  0  0
    7.0903    7.8070   -0.2669 H   0  0  0  0  0  0  0  0  0  0  0  0
    7.1448    9.4405   -1.0362 H   0  0  0  0  0  0  0  0  0  0  0  0
    8.6342    8.4244   -0.9943 H   0  0  0  0  0  0  0  0  0  0  0  0
  1  2  1  0  0  0  0
  1 28  1  0  0  0  0
  1 29  1  0  0  0  0
  1 30  1  0  0  0  0
  2  3  1  0  0  0  0
  2 31  1  0  0  0  0
  2 32  1  0  0  0  0
  3  4  1  0  0  0  0
  3 33  1  0  0  0  0
  3 34  1  0  0  0  0
  4  5  1  0  0  0  0
  4 35  1  0  0  0  0
  4 36  1  0  0  0  0
  5  6  1  0  0  0  0
  5 10  1  0  0  0  0
  5 14  1  0  0  0  0
  6  7  1  0  0  0  0
  6 37  1  0  0  0  0
  6 38  1  0  0  0  0
  7  8  1  0  0  0  0
  7 39  1  0  0  0  0
  7 40  1  0  0  0  0
  8  9  1  0  0  0  0
  8 41  1  0  0  0  0
  8 42  1  0  0  0  0
  9 43  1  0  0  0  0
  9 44  1  0  0  0  0
  9 45  1  0  0  0  0
 10 11  1  0  0  0  0
 10 46  1  0  0  0  0
 10 47  1  0  0  0  0
 11 12  1  0  0  0  0
 11 48  1  0  0  0  0
 11 49  1  0  0  0  0
 12 13  1  0  0  0  0
 12 50  1  0  0  0  0
 12 51  1  0  0  0  0
 13 52  1  0  0  0  0
 13 53  1  0  0  0  0
 13 54  1  0  0  0  0
 14 15  1  0  0  0  0
 15 16  1  0  0  0  0
 15 20  1  0  0  0  0
 15 24  1  0  0  0  0
 16 17  1  0  0  0  0
 16 55  1  0  0  0  0
 16 56  1  0  0  0  0
 17 18  1  0  0  0  0
 17 57  1  0  0  0  0
 17 58  1  0  0  0  0
 18 19  1  0  0  0  0
 18 59  1  0  0  0  0
 18 60  1  0  0  0  0
 19 61  1  0  0  0  0
 19 62  1  0  0  0  0
 19 63  1  0  0  0  0
 20 21  1  0  0  0  0
 20 64  1  0  0  0  0
 20 65  1  0  0  0  0
 21 22  1  0  0  0  0
 21 66  1  0  0  0  0
 21 67  1  0  0  0  0
 22 23  1  0  0  0  0
 22 68  1  0  0  0  0
 22 69  1  0  0  0  0
 23 70  1  0  0  0  0
 23 71  1  0  0  0  0
 23 72  1  0  0  0  0
 24 25  1  0  0  0  0
 24 73  1  0  0  0  0
 24 74  1  0  0  0  0
 25 26  1  0  0  0  0
 25 75  1  0  0  0  0
 25 76  1  0  0  0  0
 26 27  1  0  0  0  0
 26 77  1  0  0  0  0
 26 78  1  0  0  0  0
 27 79  1  0  0  0  0
 27 80  1  0  0  0  0
 27 81  1  0  0  0  0
M  END
$$$$

 OpenBabel12201709243D

 33 33  0  0  0  0  0  0  0  0999 V2000
    0.8650   -0.1987    0.0279 C   0  0  0  0  0  0  0  0  0  0  0  0
    2.3758   -0.1507   -0.0536 C   0  0  0  0  0  0  0  0  0  0  0  0
    2.9346   -0.8343    1.0657 O   0  0  0  0  0  0  0  0  0  0  0  0
    4.6646   -0.8343    1.0657 P   0  0  0  0  0  0  0  0  0  0  0  0
    4.6456    0.7691    2.3187 S   0  0  0  0  0  0  0  0  0  0  0  0
    4.6850   -2.1931    2.0302 O   0  0  0  0  0  0  0  0  0  0  0  0
    3.5790   -3.0848    2.0890 C   0  0  0  0  0  0  0  0  0  0  0  0
    3.7883   -4.1186    3.1779 C   0  0  0  0  0  0  0  0  0  0  0  0
    6.3946   -0.8343    1.0657 O   0  0  0  0  0  0  0  0  0  0  0  0
    6.9730   -0.3802   -0.1056 C   0  0  0  0  0  0  0  0  0  0  0  0
    6.3592    0.5746   -0.9311 C   0  0  0  0  0  0  0  0  0  0  0  0
    6.9542    0.9553   -2.1334 C   0  0  0  0  0  0  0  0  0  0  0  0
    8.1762    0.4019   -2.5119 C   0  0  0  0  0  0  0  0  0  0  0  0
    8.8215   -0.5152   -1.6702 C   0  0  0  0  0  0  0  0  0  0  0  0
    8.2103   -0.9032   -0.4666 C   0  0  0  0  0  0  0  0  0  0  0  0
    8.7720    0.8108   -3.7691 N   0  0  0  0  0  0  0  0  0  0  0  0
    8.5013    1.9077   -4.2198 O   0  0  0  0  0  0  0  0  0  0  0  0
    9.5676   -0.0423   -4.5188 O   0  0  0  0  0  0  0  0  0  0  0  0
    0.4166    0.3648   -0.7936 H   0  0  0  0  0  0  0  0  0  0  0  0
    0.5159    0.2190    0.9775 H   0  0  0  0  0  0  0  0  0  0  0  0
    0.5112   -1.2338   -0.0186 H   0  0  0  0  0  0  0  0  0  0  0  0
    2.7128    0.8901   -0.0596 H   0  0  0  0  0  0  0  0  0  0  0  0
    2.7238   -0.6331   -0.9726 H   0  0  0  0  0  0  0  0  0  0  0  0
    3.4698   -3.5694    1.1141 H   0  0  0  0  0  0  0  0  0  0  0  0
    2.6529   -2.5618    2.3411 H   0  0  0  0  0  0  0  0  0  0  0  0
    4.7572   -4.6116    3.0868 H   0  0  0  0  0  0  0  0  0  0  0  0
    2.9924   -4.8710    3.1408 H   0  0  0  0  0  0  0  0  0  0  0  0
    3.7529   -3.6407    4.1639 H   0  0  0  0  0  0  0  0  0  0  0  0
    5.4381    1.0742   -0.6567 H   0  0  0  0  0  0  0  0  0  0  0  0
    6.4669    1.7005   -2.7619 H   0  0  0  0  0  0  0  0  0  0  0  0
    9.8015   -0.9156   -1.9110 H   0  0  0  0  0  0  0  0  0  0  0  0
    8.7051   -1.6132    0.1900 H   0  0  0  0  0  0  0  0  0  0  0  0
    9.4414   -0.8886   -4.0729 H   0  0  0  0  0  0  0  0  0  0  0  0
  1  2  1  0  0  0  0
  1 19  1  0  0  0  0
  1 20  1  0  0  0  0
  1 21  1  0  0  0  0
  2  3  1  0  0  0  0
  2 22  1  0  0  0  0
  2 23  1  0  0  0  0
  3  4  1  0  0  0  0
  4  5  2  0  0  0  0
  4  6  1  0  0  0  0
  4  9  1  0  0  0  0
  6  7  1  0  0  0  0
  7  8  1  0  0  0  0
  7 24  1  0  0  0  0
  7 25  1  0  0  0  0
  8 26  1  0  0  0  0
  8 27  1  0  0  0  0
  8 28  1  0  0  0  0
  9 10  1  0  0  0  0
 10 11  2  0  0  0  0
 10 15  1  0  0  0  0
 11 12  1  0  0  0  0
 11 29  1  0  0  0  0
 12 13  2  0  0  0  0
 12 30  1  0  0  0  0
 13 14  1  0  0  0  0
 13 16  1  0  0  0  0
 14 15  2  0  0  0  0
 14 31  1  0  0  0  0
 15 32  1  0  0  0  0
 16 17  2  0  0  0  0
 16 18  1  0  0  0  0
 18 33  1  0  0  0  0
M  END
$$$$

 OpenBabel12201709243D

 37 41  0  0  0  0  0  0  0  0999 V2000
    0.9343   -0.2257    0.0742 C   0  0  0  0  0  0  0  0  0  0  0  0
    2.4222   -0.1118    0.0754 C   0  0  0  0  0  0  0  0  0  0  0  0
    3.0669    1.1453    0.0675 C   0  0  0  0  0  0  0  0  0  0  0  0
    4.4647    1.2699    0.0669 C   0  0  0  0  0  0  0  0  0  0  0  0
    5.2665    0.1221    0.0736 C   0  0  0  0  0  0  0  0  0  0  0  0
    6.6652    0.1085    0.0750 C   0  0  0  0  0  0  0  0  0  0  0  0
    7.4092   -1.1038    0.0831 C   0  0  0  0  0  0  0  0  0  0  0  0
    6.7007   -2.3451    0.0867 C   0  0  0  0  0  0  0  0  0  0  0  0
    7.3732   -3.5650    0.0897 C   0  0  0  0  0  0  0  0  0  0  0  0
    8.7679   -3.5780    0.0909 C   0  0  0  0  0  0  0  0  0  0  0  0
    9.5110   -2.3858    0.0938 C   0  0  0  0  0  0  0  0  0  0  0  0
   10.9166   -2.4319    0.0973 C   0  0  0  0  0  0  0  0  0  0  0  0
   11.6806   -1.2647    0.1014 C   0  0  0  0  0  0  0  0  0  0  0  0
   11.0483   -0.0323    0.0998 C   0  0  0  0  0  0  0  0  0  0  0  0
    9.6553    0.0289    0.0927 C   0  0  0  0  0  0  0  0  0  0  0  0
    8.8421   -1.1344    0.0884 C   0  0  0  0  0  0  0  0  0  0  0  0
    5.3016   -2.3005    0.0886 C   0  0  0  0  0  0  0  0  0  0  0  0
    4.2947   -3.4074    0.1016 C   0  0  0  0  0  0  0  0  0  0  0  0
    2.9097   -2.6780    0.0948 C   0  0  0  0  0  0  0  0  0  0  0  0
    3.2598   -1.2298    0.0827 C   0  0  0  0  0  0  0  0  0  0  0  0
    4.6348   -1.0904    0.0805 C   0  0  0  0  0  0  0  0  0  0  0  0
    0.4642    0.7641    0.0759 H   0  0  0  0  0  0  0  0  0  0  0  0
    0.5915   -0.7584    0.9661 H   0  0  0  0  0  0  0  0  0  0  0  0
    0.5928   -0.7551   -0.8203 H   0  0  0  0  0  0  0  0  0  0  0  0
    2.4697    2.0552    0.0623 H   0  0  0  0  0  0  0  0  0  0  0  0
    4.9178    2.2573    0.0617 H   0  0  0  0  0  0  0  0  0  0  0  0
    7.1671    1.0697    0.0690 H   0  0  0  0  0  0  0  0  0  0  0  0
    6.8395   -4.5110    0.0904 H   0  0  0  0  0  0  0  0  0  0  0  0
    9.2790   -4.5389    0.0924 H   0  0  0  0  0  0  0  0  0  0  0  0
   11.4355   -3.3882    0.0996 H   0  0  0  0  0  0  0  0  0  0  0  0
   12.7659   -1.3190    0.1068 H   0  0  0  0  0  0  0  0  0  0  0  0
   11.6298    0.8859    0.1041 H   0  0  0  0  0  0  0  0  0  0  0  0
    9.2150    1.0211    0.0929 H   0  0  0  0  0  0  0  0  0  0  0  0
    4.4034   -4.0195    1.0032 H   0  0  0  0  0  0  0  0  0  0  0  0
    4.4013   -4.0428   -0.7838 H   0  0  0  0  0  0  0  0  0  0  0  0
    2.3315   -2.9282    0.9903 H   0  0  0  0  0  0  0  0  0  0  0  0
    2.3316   -2.9442   -0.7962 H   0  0  0  0  0  0  0  0  0  0  0  0
  1  2  1  0  0  0  0
  1 22  1  0  0  0  0
  1 23  1  0  0  0  0
  1 24  1  0  0  0  0
  2  3  2  0  0  0  0
  2 20  1  0  0  0  0
  3  4  1  0  0  0  0
  3 25  1  0  0  0  0
  4  5  2  0  0  0  0
  4 26  1  0  0  0  0
  5  6  1  0  0  0  0
  5 21  1  0  0  0  0
  6  7  2  0  0  0  0
  6 27  1  0  0  0  0
  7  8  1  0  0  0  0
  7 16  1  0  0  0  0
  8  9  1  0  0  0  0
  8 17  2  0  0  0  0
  9 10  2  0  0  0  0
  9 28  1  0  0  0  0
 10 11  1  0  0  0  0
 10 29  1  0  0  0  0
 11 12  2  0  0  0  0
 11 16  1  0  0  0  0
 12 13  1  0  0  0  0
 12 30  1  0  0  0  0
 13 14  2  0  0  0  0
 13 31  1  0  0  0  0
 14 15  1  0  0  0  0
 14 32  1  0  0  0  0
 15 16  2  0  0  0  0
 15 33  1  0  0  0  0
 17 18  1  0  0  0  0
 17 21  1  0  0  0  0
 18 19  1  0  0  0  0
 18 34  1  0  0  0  0
 18 35  1  0  0  0  0
 19 20  1  0  0  0  0
 19 36  1  0  0  0  0
 19 37  1  0  0  0  0
 20 21  2  0  0  0  0
M  END
$$$$

 OpenBabel12201709243D

 40 41  0  0  0  0  0  0  0  0999 V2000
    2.5604   -0.9271    0.9753 C   0  0  0  0  0  0  0  0  0  0  0  0
    2.6725    0.0218   -0.2054 C   0  0  0  0  0  0  0  0  0  0  0  0
    2.9966    1.4775    0.1132 C   0  0  0  0  0  0  0  0  0  0  0  0
    2.0649    2.4727    0.1481 C   0  0  0  0  0  0  0  0  0  0  0  0
    2.3867    3.9458   -0.0840 C   0  0  0  0  0  0  0  0  0  0  0  0
    2.5081    4.8280    1.1464 C   0  0  0  0  0  0  0  0  0  0  0  0
    0.6039    2.1802    0.1415 C   0  0  0  0  0  0  0  0  0  0  0  0
   -0.1019    1.9248    1.3288 C   0  0  0  0  0  0  0  0  0  0  0  0
   -1.4682    1.6361    1.2980 C   0  0  0  0  0  0  0  0  0  0  0  0
   -2.1389    1.6051    0.0726 C   0  0  0  0  0  0  0  0  0  0  0  0
   -3.4629    1.2883   -0.0140 O   0  0  0  0  0  0  0  0  0  0  0  0
   -1.4676    1.8898   -1.1062 C   0  0  0  0  0  0  0  0  0  0  0  0
   -0.0999    2.1723   -1.0737 C   0  0  0  0  0  0  0  0  0  0  0  0
    4.4575    1.7689    0.1222 C   0  0  0  0  0  0  0  0  0  0  0  0
    5.1597    1.9455    1.3253 C   0  0  0  0  0  0  0  0  0  0  0  0
    6.5325    2.2415    1.3190 C   0  0  0  0  0  0  0  0  0  0  0  0
    7.2022    2.3622    0.1101 C   0  0  0  0  0  0  0  0  0  0  0  0
    8.5256    2.6892    0.0467 O   0  0  0  0  0  0  0  0  0  0  0  0
    6.5347    2.1527   -1.0924 C   0  0  0  0  0  0  0  0  0  0  0  0
    5.1645    1.8628   -1.0854 C   0  0  0  0  0  0  0  0  0  0  0  0
    2.2146   -1.9045    0.6154 H   0  0  0  0  0  0  0  0  0  0  0  0
    1.8421   -0.5735    1.7189 H   0  0  0  0  0  0  0  0  0  0  0  0
    3.5287   -1.0812    1.4602 H   0  0  0  0  0  0  0  0  0  0  0  0
    1.7443   -0.0363   -0.7848 H   0  0  0  0  0  0  0  0  0  0  0  0
    3.4338   -0.3787   -0.8889 H   0  0  0  0  0  0  0  0  0  0  0  0
    1.6198    4.3858   -0.7361 H   0  0  0  0  0  0  0  0  0  0  0  0
    3.3099    4.0395   -0.6676 H   0  0  0  0  0  0  0  0  0  0  0  0
    1.5479    4.9369    1.6618 H   0  0  0  0  0  0  0  0  0  0  0  0
    2.8297    5.8295    0.8379 H   0  0  0  0  0  0  0  0  0  0  0  0
    3.2484    4.4440    1.8525 H   0  0  0  0  0  0  0  0  0  0  0  0
    0.4131    1.9560    2.2867 H   0  0  0  0  0  0  0  0  0  0  0  0
   -2.0066    1.4518    2.2233 H   0  0  0  0  0  0  0  0  0  0  0  0
   -3.7481    0.9010    0.8305 H   0  0  0  0  0  0  0  0  0  0  0  0
   -2.0007    1.8808   -2.0527 H   0  0  0  0  0  0  0  0  0  0  0  0
    0.4191    2.3788   -2.0066 H   0  0  0  0  0  0  0  0  0  0  0  0
    4.6475    1.8451    2.2791 H   0  0  0  0  0  0  0  0  0  0  0  0
    7.0590    2.3655    2.2603 H   0  0  0  0  0  0  0  0  0  0  0  0
    8.8060    3.0116    0.9187 H   0  0  0  0  0  0  0  0  0  0  0  0
    7.0722    2.2264   -2.0325 H   0  0  0  0  0  0  0  0  0  0  0  0
    4.6539    1.7092   -2.0309 H   0  0  0  0  0  0  0  0  0  0  0  0
  1  2  1  0  0  0  0
  1 21  1  0  0  0  0
  1 22  1  0  0  0  0
  1 23  1  0  0  0  0
  2  3  1  0  0  0  0
  2 24  1  0  0  0  0
  2 25  1  0  0  0  0
  3  4  2  3  0  0  0
  3 14  1  0  0  0  0
  4  5  1  0  0  0  0
  4  7  1  0  0  0  0
  5  6  1  0  0  0  0
  5 26  1  0  0  0  0
  5 27  1  0  0  0  0
  6 28  1  0  0  0  0
  6 29  1  0  0  0  0
  6 30  1  0  0  0  0
  7  8  2  0  0  0  0
  7 13  1  0  0  0  0
  8  9  1  0  0  0  0
  8 31  1  0  0  0  0
  9 10  2  0  0  0  0
  9 32  1  0  0  0  0
 10 11  1  0  0  0  0
 10 12  1  0  0  0  0
 11 33  1  0  0  0  0
 12 13  2  0  0  0  0
 12 34  1  0  0  0  0
 13 35  1  0  0  0  0
 14 15  2  0  0  0  0
 14 20  1  0  0  0  0
 15 16  1  0  0  0  0
 15 36  1  0  0  0  0
 16 17  2  0  0  0  0
 16 37  1  0  0  0  0
 17 18  1  0  0  0  0
 17 19  1  0  0  0  0
 18 38  1  0  0  0  0
 19 20  2  0  0  0  0
 19 39  1  0  0  0  0
 20 40  1  0  0  0  0
M  END
$$$$

 OpenBabel12201709243D

 38 39  0  0  0  0  0  0  0  0999 V2000
    2.5996   -1.2252   -1.6764 C   0  0  0  0  0  0  0  0  0  0  0  0
    2.3375    0.2477   -1.9220 C   0  0  0  0  0  0  0  0  0  0  0  0
    2.9943    1.0600   -0.9610 O   0  0  0  0  0  0  0  0  0  0  0  0
    4.7243    1.0600   -0.9610 P   0  0  0  0  0  0  0  0  0  0  0  0
    4.7295    2.8247   -1.9218 S   0  0  0  0  0  0  0  0  0  0  0  0
    4.6242    1.2983    0.6853 O   0  0  0  0  0  0  0  0  0  0  0  0
    3.9287    0.3163    1.4652 C   0  0  0  0  0  0  0  0  0  0  0  0
    4.2064    0.5434    2.9414 C   0  0  0  0  0  0  0  0  0  0  0  0
    6.4543    1.0600   -0.9610 O   0  0  0  0  0  0  0  0  0  0  0  0
    7.3736    0.8161    0.0309 C   0  0  0  0  0  0  0  0  0  0  0  0
    7.1040    0.0561    1.1545 C   0  0  0  0  0  0  0  0  0  0  0  0
    8.0187   -0.0967    2.2010 C   0  0  0  0  0  0  0  0  0  0  0  0
    9.3265    0.3519    2.0833 C   0  0  0  0  0  0  0  0  0  0  0  0
   10.3610    0.0723    3.0958 C   0  0  0  0  0  0  0  0  0  0  0  0
   10.0355   -0.7823    4.2954 C   0  0  0  0  0  0  0  0  0  0  0  0
   11.5952    0.5585    2.8642 C   0  0  0  0  0  0  0  0  0  0  0  0
   12.8974    0.2847    3.9803 Cl  0  0  0  0  0  0  0  0  0  0  0  0
   11.9449    1.3627    1.6576 C   0  0  0  0  0  0  0  0  0  0  0  0
   13.0643    1.8345    1.4744 O   0  0  0  0  0  0  0  0  0  0  0  0
   10.9307    1.5590    0.7190 O   0  0  0  0  0  0  0  0  0  0  0  0
    9.6269    1.0565    0.9181 C   0  0  0  0  0  0  0  0  0  0  0  0
    8.6716    1.3163   -0.0941 C   0  0  0  0  0  0  0  0  0  0  0  0
    1.9181   -1.8415   -2.2707 H   0  0  0  0  0  0  0  0  0  0  0  0
    2.4745   -1.4803   -0.6196 H   0  0  0  0  0  0  0  0  0  0  0  0
    3.6258   -1.4853   -1.9538 H   0  0  0  0  0  0  0  0  0  0  0  0
    1.2648    0.4425   -1.8178 H   0  0  0  0  0  0  0  0  0  0  0  0
    2.6329    0.5401   -2.9332 H   0  0  0  0  0  0  0  0  0  0  0  0
    4.2449   -0.6889    1.1609 H   0  0  0  0  0  0  0  0  0  0  0  0
    2.8511    0.3680    1.2960 H   0  0  0  0  0  0  0  0  0  0  0  0
    5.2665    0.7390    3.1403 H   0  0  0  0  0  0  0  0  0  0  0  0
    3.9070   -0.3323    3.5335 H   0  0  0  0  0  0  0  0  0  0  0  0
    3.6581    1.4126    3.3016 H   0  0  0  0  0  0  0  0  0  0  0  0
    6.1751   -0.4617    1.2742 H   0  0  0  0  0  0  0  0  0  0  0  0
    7.6569   -0.5949    3.0946 H   0  0  0  0  0  0  0  0  0  0  0  0
    9.1250   -1.3767    4.1918 H   0  0  0  0  0  0  0  0  0  0  0  0
    9.9219   -0.1573    5.1877 H   0  0  0  0  0  0  0  0  0  0  0  0
   10.8197   -1.5255    4.4786 H   0  0  0  0  0  0  0  0  0  0  0  0
    8.9604    1.8817   -0.9776 H   0  0  0  0  0  0  0  0  0  0  0  0
  1  2  1  0  0  0  0
  1 23  1  0  0  0  0
  1 24  1  0  0  0  0
  1 25  1  0  0  0  0
  2  3  1  0  0  0  0
  2 26  1  0  0  0  0
  2 27  1  0  0  0  0
  3  4  1  0  0  0  0
  4  5  2  0  0  0  0
  4  6  1  0  0  0  0
  4  9  1  0  0  0  0
  6  7  1  0  0  0  0
  7  8  1  0  0  0  0
  7 28  1  0  0  0  0
  7 29  1  0  0  0  0
  8 30  1  0  0  0  0
  8 31  1  0  0  0  0
  8 32  1  0  0  0  0
  9 10  1  0  0  0  0
 10 11  2  0  0  0  0
 10 22  1  0  0  0  0
 11 12  1  0  0  0  0
 11 33  1  0  0  0  0
 12 13  2  0  0  0  0
 12 34  1  0  0  0  0
 13 14  1  0  0  0  0
 13 21  1  0  0  0  0
 14 15  1  0  0  0  0
 14 16  2  0  0  0  0
 15 35  1  0  0  0  0
 15 36  1  0  0  0  0
 15 37  1  0  0  0  0
 16 17  1  0  0  0  0
 16 18  1  0  0  0  0
 18 19  2  0  0  0  0
 18 20  1  0  0  0  0
 20 21  1  0  0  0  0
 21 22  2  0  0  0  0
 22 38  1  0  0  0  0
M  END
$$$$

 OpenBabel12201709243D

 33 33  0  0  1  0  0  0  0  0999 V2000
    2.8088   -2.3571   -1.6493 O   0  0  0  0  0  0  0  0  0  0  0  0
    2.1639   -2.2961   -0.3850 C   0  0  0  0  0  0  0  0  0  0  0  0
    2.7857   -1.2103    0.5187 C   0  0  3  0  0  0  0  0  0  0  0  0
    2.0481   -1.1323    1.7961 N   0  0  0  0  0  0  0  0  0  0  0  0
    1.8794    0.0428    2.5050 C   0  0  0  0  0  0  0  0  0  0  0  0
    2.3408    1.1116    2.1200 O   0  0  0  0  0  0  0  0  0  0  0  0
    1.1285   -0.0690    3.8380 C   0  0  0  0  0  0  0  0  0  0  0  0
   -0.4510   -0.8366    3.5734 Cl  0  0  0  0  0  0  0  0  0  0  0  0
    2.1040   -1.0438    4.9613 Cl  0  0  0  0  0  0  0  0  0  0  0  0
    4.3317   -1.4084    0.6765 C   0  0  3  0  0  0  0  0  0  0  0  0
    4.9399   -0.3911    1.4731 O   0  0  0  0  0  0  0  0  0  0  0  0
    4.7686   -2.7518    1.2325 C   0  0  0  0  0  0  0  0  0  0  0  0
    5.6253   -3.5655    0.4742 C   0  0  0  0  0  0  0  0  0  0  0  0
    6.0183   -4.8206    0.9417 C   0  0  0  0  0  0  0  0  0  0  0  0
    5.5498   -5.2779    2.1759 C   0  0  0  0  0  0  0  0  0  0  0  0
    4.7357   -4.4651    2.9662 C   0  0  0  0  0  0  0  0  0  0  0  0
    4.3600   -3.2059    2.4957 C   0  0  0  0  0  0  0  0  0  0  0  0
    5.9299   -6.5955    2.6417 N   0  0  0  0  0  0  0  0  0  0  0  0
    7.0135   -7.0453    2.3222 O   0  0  0  0  0  0  0  0  0  0  0  0
    5.0677   -7.3723    3.3965 O   0  0  0  0  0  0  0  0  0  0  0  0
    2.3658   -3.0506   -2.1699 H   0  0  0  0  0  0  0  0  0  0  0  0
    2.2252   -3.2837    0.0856 H   0  0  0  0  0  0  0  0  0  0  0  0
    1.1025   -2.0801   -0.5535 H   0  0  0  0  0  0  0  0  0  0  0  0
    2.6518   -0.2389    0.0240 H   0  0  0  0  0  0  0  0  0  0  0  0
    1.6740   -1.9902    2.1898 H   0  0  0  0  0  0  0  0  0  0  0  0
    0.9776    0.9234    4.2704 H   0  0  0  0  0  0  0  0  0  0  0  0
    4.7721   -1.2863   -0.3209 H   0  0  0  0  0  0  0  0  0  0  0  0
    4.4403   -0.3249    2.3016 H   0  0  0  0  0  0  0  0  0  0  0  0
    6.0011   -3.2199   -0.4883 H   0  0  0  0  0  0  0  0  0  0  0  0
    6.6907   -5.4319    0.3433 H   0  0  0  0  0  0  0  0  0  0  0  0
    4.4137   -4.7733    3.9585 H   0  0  0  0  0  0  0  0  0  0  0  0
    3.7602   -2.5763    3.1419 H   0  0  0  0  0  0  0  0  0  0  0  0
    4.2374   -6.8847    3.3296 H   0  0  0  0  0  0  0  0  0  0  0  0
  1  2  1  0  0  0  0
  1 21  1  0  0  0  0
  2  3  1  0  0  0  0
  2 22  1  0  0  0  0
  2 23  1  0  0  0  0
  3  4  1  0  0  0  0
  3 10  1  0  0  0  0
  3 24  1  0  0  0  0
  4  5  1  0  0  0  0
  4 25  1  0  0  0  0
  5  6  2  0  0  0  0
  5  7  1  0  0  0  0
  7  8  1  0  0  0  0
  7  9  1  0  0  0  0
  7 26  1  0  0  0  0
 10 11  1  0  0  0  0
 10 12  1  0  0  0  0
 10 27  1  0  0  0  0
 11 28  1  0  0  0  0
 12 13  2  0  0  0  0
 12 17  1  0  0  0  0
 13 14  1  0  0  0  0
 13 29  1  0  0  0  0
 14 15  2  0  0  0  0
 14 30  1  0  0  0  0
 15 16  1  0  0  0  0
 15 18  1  0  0  0  0
 16 17  2  0  0  0  0
 16 31  1  0  0  0  0
 17 32  1  0  0  0  0
 18 19  2  0  0  0  0
 18 20  1  0  0  0  0
 20 33  1  0  0  0  0
M  END
$$$$

 OpenBabel12201709243D

 19 18  0  0  1  0  0  0  0  0999 V2000
    0.9486   -0.1832   -0.0195 N   0  0  0  0  0  0  0  0  0  0  0  0
    2.4310   -0.0697    0.0975 C   0  0  3  0  0  0  0  0  0  0  0  0
    2.8686    0.9338    1.1751 C   0  0  0  0  0  0  0  0  0  0  0  0
    2.4384    2.3814    0.9173 C   0  0  0  0  0  0  0  0  0  0  0  0
    2.9880    2.9238   -0.3814 C   0  0  0  0  0  0  0  0  0  0  0  0
    4.0115    2.5308   -0.9180 O   0  0  0  0  0  0  0  0  0  0  0  0
    2.2317    3.9116   -0.9064 O   0  0  0  0  0  0  0  0  0  0  0  0
    2.9838   -1.4826    0.3930 C   0  0  0  0  0  0  0  0  0  0  0  0
    4.0159   -1.7392    0.9838 O   0  0  0  0  0  0  0  0  0  0  0  0
    2.1522   -2.4340   -0.1103 O   0  0  0  0  0  0  0  0  0  0  0  0
    0.5578    0.7194   -0.2903 H   0  0  0  0  0  0  0  0  0  0  0  0
    0.5638   -0.3801    0.9105 H   0  0  0  0  0  0  0  0  0  0  0  0
    2.8269    0.2096   -0.8847 H   0  0  0  0  0  0  0  0  0  0  0  0
    3.9627    0.9031    1.2665 H   0  0  0  0  0  0  0  0  0  0  0  0
    2.4799    0.6200    2.1529 H   0  0  0  0  0  0  0  0  0  0  0  0
    2.8059    3.0254    1.7248 H   0  0  0  0  0  0  0  0  0  0  0  0
    1.3458    2.4441    0.9087 H   0  0  0  0  0  0  0  0  0  0  0  0
    1.4566    4.1663   -0.3721 H   0  0  0  0  0  0  0  0  0  0  0  0
    1.3806   -1.9524   -0.4963 H   0  0  0  0  0  0  0  0  0  0  0  0
  1  2  1  0  0  0  0
  1 11  1  0  0  0  0
  1 12  1  0  0  0  0
  2  3  1  0  0  0  0
  2  8  1  0  0  0  0
  2 13  1  0  0  0  0
  3  4  1  0  0  0  0
  3 14  1  0  0  0  0
  3 15  1  0  0  0  0
  4  5  1  0  0  0  0
  4 16  1  0  0  0  0
  4 17  1  0  0  0  0
  5  6  2  0  0  0  0
  5  7  1  0  0  0  0
  7 18  1  0  0  0  0
  8  9  2  0  0  0  0
  8 10  1  0  0  0  0
 10 19  1  0  0  0  0
M  END
$$$$

 OpenBabel12201709243D

 16 16  0  0  1  0  0  0  0  0999 V2000
    1.0038    0.0693   -0.0031 O   0  0  0  0  0  0  0  0  0  0  0  0
    2.4204    0.0426   -0.0065 C   0  0  3  0  0  0  0  0  0  0  0  0
    2.9919    1.1903    0.8056 C   0  0  0  0  0  0  0  0  0  0  0  0
    4.3306    0.6404    1.2533 C   0  0  0  0  0  0  0  0  0  0  0  0
    4.0056   -0.7394    1.6177 N   0  0  0  0  0  0  0  0  0  0  0  0
    2.9850   -1.2172    0.6640 C   0  0  0  0  0  0  0  0  0  0  0  0
    5.0507   -1.5066    1.8059 N   0  0  0  0  0  0  0  0  0  0  0  0
    4.7173   -2.6518    2.1290 O   0  0  0  0  0  0  0  0  0  0  0  0
    0.7212    0.9105   -0.4023 H   0  0  0  0  0  0  0  0  0  0  0  0
    2.7717    0.0984   -1.0443 H   0  0  0  0  0  0  0  0  0  0  0  0
    2.3483    1.4235    1.6633 H   0  0  0  0  0  0  0  0  0  0  0  0
    3.0918    2.1032    0.2105 H   0  0  0  0  0  0  0  0  0  0  0  0
    4.7306    1.2091    2.1002 H   0  0  0  0  0  0  0  0  0  0  0  0
    5.0516    0.6878    0.4262 H   0  0  0  0  0  0  0  0  0  0  0  0
    2.2050   -1.7788    1.1918 H   0  0  0  0  0  0  0  0  0  0  0  0
    3.4071   -1.8695   -0.1116 H   0  0  0  0  0  0  0  0  0  0  0  0
  1  2  1  0  0  0  0
  1  9  1  0  0  0  0
  2  3  1  0  0  0  0
  2  6  1  0  0  0  0
  2 10  1  0  0  0  0
  3  4  1  0  0  0  0
  3 11  1  0  0  0  0
  3 12  1  0  0  0  0
  4  5  1  0  0  0  0
  4 13  1  0  0  0  0
  4 14  1  0  0  0  0
  5  6  1  0  0  0  0
  5  7  1  0  0  0  0
  6 15  1  0  0  0  0
  6 16  1  0  0  0  0
  7  8  2  0  0  0  0
M  END
$$$$

 OpenBabel12201709243D

 10  9  0  0  0  0  0  0  0  0999 V2000
    1.0796    0.0682   -0.0017 N   0  0  0  0  0  0  0  0  0  0  0  0
    2.4917   -0.0027    0.0632 N   0  0  0  0  0  0  0  0  0  0  0  0
    3.0753   -0.8138    1.0165 C   0  0  0  0  0  0  0  0  0  0  0  0
    2.4720   -1.3866    1.9164 O   0  0  0  0  0  0  0  0  0  0  0  0
    4.4271   -0.8837    0.9065 N   0  0  0  0  0  0  0  0  0  0  0  0
    0.8086    1.0542    0.0077 H   0  0  0  0  0  0  0  0  0  0  0  0
    0.7246   -0.3114    0.8870 H   0  0  0  0  0  0  0  0  0  0  0  0
    3.0077    0.1393   -0.7968 H   0  0  0  0  0  0  0  0  0  0  0  0
    4.9278   -0.5408    0.1025 H   0  0  0  0  0  0  0  0  0  0  0  0
    4.9004   -1.5092    1.5423 H   0  0  0  0  0  0  0  0  0  0  0  0
  1  2  1  0  0  0  0
  1  6  1  0  0  0  0
  1  7  1  0  0  0  0
  2  3  1  0  0  0  0
  2  8  1  0  0  0  0
  3  4  2  0  0  0  0
  3  5  1  0  0  0  0
  5  9  1  0  0  0  0
  5 10  1  0  0  0  0
M  END
$$$$

 OpenBabel12201709243D

 12 11  0  0  0  0  0  0  0  0999 V2000
    1.0753   -0.0541   -0.0159 C   0  0  0  0  0  0  0  0  0  0  0  0
    2.5768   -0.1240   -0.0340 C   0  0  0  0  0  0  0  0  0  0  0  0
    3.2242   -1.0114   -0.8094 C   0  0  0  0  0  0  0  0  0  0  0  0
    3.3146    0.8750    0.8184 C   0  0  0  0  0  0  0  0  0  0  0  0
    3.0287    0.5772    2.5460 Cl  0  0  0  0  0  0  0  0  0  0  0  0
    0.6236   -0.7589   -0.7224 H   0  0  0  0  0  0  0  0  0  0  0  0
    0.7381    0.9501   -0.2905 H   0  0  0  0  0  0  0  0  0  0  0  0
    0.6842   -0.2936    0.9785 H   0  0  0  0  0  0  0  0  0  0  0  0
    2.6859   -1.7189   -1.4345 H   0  0  0  0  0  0  0  0  0  0  0  0
    4.3084   -1.0608   -0.8406 H   0  0  0  0  0  0  0  0  0  0  0  0
    2.9901    1.8941    0.5850 H   0  0  0  0  0  0  0  0  0  0  0  0
    4.3961    0.8242    0.6590 H   0  0  0  0  0  0  0  0  0  0  0  0
  1  2  1  0  0  0  0
  1  6  1  0  0  0  0
  1  7  1  0  0  0  0
  1  8  1  0  0  0  0
  2  3  2  0  0  0  0
  2  4  1  0  0  0  0
  3  9  1  0  0  0  0
  3 10  1  0  0  0  0
  4  5  1  0  0  0  0
  4 11  1  0  0  0  0
  4 12  1  0  0  0  0
M  END
$$$$

 OpenBabel12201709243D

 17 17  0  0  0  0  0  0  0  0999 V2000
    1.2496   -0.0080    0.7183 O   0  0  0  0  0  0  0  0  0  0  0  0
    2.4584    0.0613    0.4722 N   0  0  0  0  0  0  0  0  0  0  0  0
    2.7424    1.1970   -0.1220 N   0  0  0  0  0  0  0  0  0  0  0  0
    4.0106    1.1407   -0.8717 C   0  0  0  0  0  0  0  0  0  0  0  0
    4.2431    2.4443   -1.6584 C   0  0  0  0  0  0  0  0  0  0  0  0
    4.2438    3.6349   -0.7986 N   0  0  0  0  0  0  0  0  0  0  0  0
    3.0145    3.6689    0.0082 C   0  0  0  0  0  0  0  0  0  0  0  0
    2.7697    2.3616    0.7885 C   0  0  0  0  0  0  0  0  0  0  0  0
    3.9886    0.3110   -1.5906 H   0  0  0  0  0  0  0  0  0  0  0  0
    4.8600    0.9626   -0.1959 H   0  0  0  0  0  0  0  0  0  0  0  0
    3.4742    2.5511   -2.4342 H   0  0  0  0  0  0  0  0  0  0  0  0
    5.2091    2.3833   -2.1734 H   0  0  0  0  0  0  0  0  0  0  0  0
    4.2923    4.4736   -1.3773 H   0  0  0  0  0  0  0  0  0  0  0  0
    2.1562    3.8758   -0.6421 H   0  0  0  0  0  0  0  0  0  0  0  0
    3.0867    4.5003    0.7177 H   0  0  0  0  0  0  0  0  0  0  0  0
    1.8140    2.4625    1.3182 H   0  0  0  0  0  0  0  0  0  0  0  0
    3.5523    2.2403    1.5519 H   0  0  0  0  0  0  0  0  0  0  0  0
  1  2  2  0  0  0  0
  2  3  1  0  0  0  0
  3  4  1  0  0  0  0
  3  8  1  0  0  0  0
  4  5  1  0  0  0  0
  4  9  1  0  0  0  0
  4 10  1  0  0  0  0
  5  6  1  0  0  0  0
  5 11  1  0  0  0  0
  5 12  1  0  0  0  0
  6  7  1  0  0  0  0
  6 13  1  0  0  0  0
  7  8  1  0  0  0  0
  7 14  1  0  0  0  0
  7 15  1  0  0  0  0
  8 16  1  0  0  0  0
  8 17  1  0  0  0  0
M  END
$$$$

 OpenBabel12201709243D

 48 50  0  0  0  0  0  0  0  0999 V2000
    4.0354   -2.1647    2.0191 C   0  0  0  0  0  0  0  0  0  0  0  0
    3.3267   -1.3583    1.0763 O   0  0  0  0  0  0  0  0  0  0  0  0
    3.6631   -1.5984   -0.2313 C   0  0  0  0  0  0  0  0  0  0  0  0
    2.6325   -1.5317   -1.1648 C   0  0  0  0  0  0  0  0  0  0  0  0
    2.8646   -1.8748   -2.5053 C   0  0  0  0  0  0  0  0  0  0  0  0
    4.1417   -2.2772   -2.9220 C   0  0  0  0  0  0  0  0  0  0  0  0
    5.1944   -2.2279   -1.9996 C   0  0  0  0  0  0  0  0  0  0  0  0
    4.9577   -1.8879   -0.6620 C   0  0  0  0  0  0  0  0  0  0  0  0
    4.3505   -2.9399   -4.2312 C   0  0  0  0  0  0  0  0  0  0  0  0
    4.7306   -2.3668   -5.3994 C   0  0  0  0  0  0  0  0  0  0  0  0
    4.9071   -3.2156   -6.6218 C   0  0  0  0  0  0  0  0  0  0  0  0
    3.8186   -3.4699   -7.4622 C   0  0  0  0  0  0  0  0  0  0  0  0
    3.9624   -4.3014   -8.5776 C   0  0  0  0  0  0  0  0  0  0  0  0
    5.1939   -4.8844   -8.8833 C   0  0  0  0  0  0  0  0  0  0  0  0
    5.1720   -5.7303   -9.9567 O   0  0  0  0  0  0  0  0  0  0  0  0
    6.4019   -5.9837  -10.6225 C   0  0  0  0  0  0  0  0  0  0  0  0
    6.2895   -4.6216   -8.0606 C   0  0  0  0  0  0  0  0  0  0  0  0
    6.1475   -3.7931   -6.9349 C   0  0  0  0  0  0  0  0  0  0  0  0
    4.8861   -0.8983   -5.4980 C   0  0  0  0  0  0  0  0  0  0  0  0
    6.1183   -0.2755   -5.2847 C   0  0  0  0  0  0  0  0  0  0  0  0
    6.2398    1.1092   -5.4505 C   0  0  0  0  0  0  0  0  0  0  0  0
    5.1433    1.8784   -5.8498 C   0  0  0  0  0  0  0  0  0  0  0  0
    5.3749    3.2218   -5.9667 O   0  0  0  0  0  0  0  0  0  0  0  0
    4.5663    3.9100   -6.9162 C   0  0  0  0  0  0  0  0  0  0  0  0
    3.9105    1.2600   -6.0486 C   0  0  0  0  0  0  0  0  0  0  0  0
    3.7841   -0.1210   -5.8746 C   0  0  0  0  0  0  0  0  0  0  0  0
    4.0499   -4.6664   -4.1089 Cl  0  0  0  0  0  0  0  0  0  0  0  0
    3.5423   -2.0653    2.9913 H   0  0  0  0  0  0  0  0  0  0  0  0
    5.0665   -1.8176    2.1374 H   0  0  0  0  0  0  0  0  0  0  0  0
    4.0118   -3.2258    1.7421 H   0  0  0  0  0  0  0  0  0  0  0  0
    1.6283   -1.2711   -0.8400 H   0  0  0  0  0  0  0  0  0  0  0  0
    2.0274   -1.8861   -3.1991 H   0  0  0  0  0  0  0  0  0  0  0  0
    6.1999   -2.5144   -2.2983 H   0  0  0  0  0  0  0  0  0  0  0  0
    5.7957   -1.8789    0.0258 H   0  0  0  0  0  0  0  0  0  0  0  0
    2.8428   -3.0379   -7.2490 H   0  0  0  0  0  0  0  0  0  0  0  0
    3.1034   -4.5024   -9.2125 H   0  0  0  0  0  0  0  0  0  0  0  0
    6.2155   -6.7595  -11.3733 H   0  0  0  0  0  0  0  0  0  0  0  0
    7.1766   -6.3681   -9.9541 H   0  0  0  0  0  0  0  0  0  0  0  0
    6.7420   -5.0857  -11.1475 H   0  0  0  0  0  0  0  0  0  0  0  0
    7.2589   -5.0725   -8.2424 H   0  0  0  0  0  0  0  0  0  0  0  0
    7.0084   -3.6193   -6.2938 H   0  0  0  0  0  0  0  0  0  0  0  0
    6.9924   -0.8556   -5.0010 H   0  0  0  0  0  0  0  0  0  0  0  0
    7.2001    1.5912   -5.2833 H   0  0  0  0  0  0  0  0  0  0  0  0
    4.8601    4.9642   -6.9013 H   0  0  0  0  0  0  0  0  0  0  0  0
    3.5028    3.8719   -6.6631 H   0  0  0  0  0  0  0  0  0  0  0  0
    4.7436    3.5240   -7.9257 H   0  0  0  0  0  0  0  0  0  0  0  0
    3.0245    1.8217   -6.3217 H   0  0  0  0  0  0  0  0  0  0  0  0
    2.8162   -0.5875   -6.0427 H   0  0  0  0  0  0  0  0  0  0  0  0
  1  2  1  0  0  0  0
  1 28  1  0  0  0  0
  1 29  1  0  0  0  0
  1 30  1  0  0  0  0
  2  3  1  0  0  0  0
  3  4  2  0  0  0  0
  3  8  1  0  0  0  0
  4  5  1  0  0  0  0
  4 31  1  0  0  0  0
  5  6  2  0  0  0  0
  5 32  1  0  0  0  0
  6  7  1  0  0  0  0
  6  9  1  0  0  0  0
  7  8  2  0  0  0  0
  7 33  1  0  0  0  0
  8 34  1  0  0  0  0
  9 10  2  0  0  0  0
  9 27  1  0  0  0  0
 10 11  1  0  0  0  0
 10 19  1  0  0  0  0
 11 12  2  0  0  0  0
 11 18  1  0  0  0  0
 12 13  1  0  0  0  0
 12 35  1  0  0  0  0
 13 14  2  0  0  0  0
 13 36  1  0  0  0  0
 14 15  1  0  0  0  0
 14 17  1  0  0  0  0
 15 16  1  0  0  0  0
 16 37  1  0  0  0  0
 16 38  1  0  0  0  0
 16 39  1  0  0  0  0
 17 18  2  0  0  0  0
 17 40  1  0  0  0  0
 18 41  1  0  0  0  0
 19 20  2  0  0  0  0
 19 26  1  0  0  0  0
 20 21  1  0  0  0  0
 20 42  1  0  0  0  0
 21 22  2  0  0  0  0
 21 43  1  0  0  0  0
 22 23  1  0  0  0  0
 22 25  1  0  0  0  0
 23 24  1  0  0  0  0
 24 44  1  0  0  0  0
 24 45  1  0  0  0  0
 24 46  1  0  0  0  0
 25 26  2  0  0  0  0
 25 47  1  0  0  0  0
 26 48  1  0  0  0  0
M  END
$$$$

 OpenBabel12201709243D

 39 41  0  0  0  0  0  0  0  0999 V2000
    1.4272   -0.7039    1.3412 N   0  0  0  0  0  0  0  0  0  0  0  0
    2.7309   -0.5186    0.8547 C   0  0  0  0  0  0  0  0  0  0  0  0
    2.9754   -0.5266   -0.5192 C   0  0  0  0  0  0  0  0  0  0  0  0
    4.2684   -0.3233   -1.0221 C   0  0  0  0  0  0  0  0  0  0  0  0
    5.3304   -0.0623   -0.1517 C   0  0  0  0  0  0  0  0  0  0  0  0
    5.0544    0.0914    1.2130 C   0  0  0  0  0  0  0  0  0  0  0  0
    3.7578   -0.1154    1.7072 C   0  0  0  0  0  0  0  0  0  0  0  0
    6.7354   -0.0111   -0.6555 C   0  0  0  0  0  0  0  0  0  0  0  0
    7.3496    1.1710   -0.9502 C   0  0  0  0  0  0  0  0  0  0  0  0
    6.6545    2.4604   -0.8796 C   0  0  0  0  0  0  0  0  0  0  0  0
    7.3457    3.5980   -0.7097 C   0  0  0  0  0  0  0  0  0  0  0  0
    8.8314    3.5542   -0.6436 C   0  0  0  0  0  0  0  0  0  0  0  0
    9.5518    4.5134   -0.1670 N   0  0  0  0  0  0  0  0  0  0  0  0
    9.4792    2.3440   -1.2003 C   0  0  0  0  0  0  0  0  0  0  0  0
    8.7576    1.2295   -1.3777 C   0  0  0  0  0  0  0  0  0  0  0  0
    7.5223   -1.2792   -0.7505 C   0  0  0  0  0  0  0  0  0  0  0  0
    8.3826   -1.6734    0.2816 C   0  0  0  0  0  0  0  0  0  0  0  0
    9.1995   -2.8039    0.1340 C   0  0  0  0  0  0  0  0  0  0  0  0
    9.1949   -3.5366   -1.0551 C   0  0  0  0  0  0  0  0  0  0  0  0
    9.9446   -4.7128   -1.1670 N   0  0  0  0  0  0  0  0  0  0  0  0
    8.2645   -3.1974   -2.0399 C   0  0  0  0  0  0  0  0  0  0  0  0
    7.4509   -2.0670   -1.9024 C   0  0  0  0  0  0  0  0  0  0  0  0
    0.8512   -1.2835    0.7435 H   0  0  0  0  0  0  0  0  0  0  0  0
    1.4030   -1.0201    2.3062 H   0  0  0  0  0  0  0  0  0  0  0  0
    2.1629   -0.7214   -1.2140 H   0  0  0  0  0  0  0  0  0  0  0  0
    4.4334   -0.3840   -2.0937 H   0  0  0  0  0  0  0  0  0  0  0  0
    5.8483    0.3610    1.9078 H   0  0  0  0  0  0  0  0  0  0  0  0
    3.5691    0.0159    2.7705 H   0  0  0  0  0  0  0  0  0  0  0  0
    5.5731    2.4927   -0.9656 H   0  0  0  0  0  0  0  0  0  0  0  0
    6.8608    4.5616   -0.6315 H   0  0  0  0  0  0  0  0  0  0  0  0
    8.9589    5.2651    0.1962 H   0  0  0  0  0  0  0  0  0  0  0  0
   10.5336    2.4039   -1.4402 H   0  0  0  0  0  0  0  0  0  0  0  0
    9.2330    0.3543   -1.8094 H   0  0  0  0  0  0  0  0  0  0  0  0
    8.4387   -1.0992    1.2040 H   0  0  0  0  0  0  0  0  0  0  0  0
    9.8511   -3.0971    0.9534 H   0  0  0  0  0  0  0  0  0  0  0  0
   10.8064   -4.7014   -0.6299 H   0  0  0  0  0  0  0  0  0  0  0  0
   10.1006   -5.0104   -2.1263 H   0  0  0  0  0  0  0  0  0  0  0  0
    8.1772   -3.8023   -2.9404 H   0  0  0  0  0  0  0  0  0  0  0  0
    6.7704   -1.8016   -2.7095 H   0  0  0  0  0  0  0  0  0  0  0  0
  1  2  1  0  0  0  0
  1 23  1  0  0  0  0
  1 24  1  0  0  0  0
  2  3  2  0  0  0  0
  2  7  1  0  0  0  0
  3  4  1  0  0  0  0
  3 25  1  0  0  0  0
  4  5  2  0  0  0  0
  4 26  1  0  0  0  0
  5  6  1  0  0  0  0
  5  8  1  0  0  0  0
  6  7  2  0  0  0  0
  6 27  1  0  0  0  0
  7 28  1  0  0  0  0
  8  9  2  0  0  0  0
  8 16  1  0  0  0  0
  9 10  1  0  0  0  0
  9 15  1  0  0  0  0
 10 11  2  0  0  0  0
 10 29  1  0  0  0  0
 11 12  1  0  0  0  0
 11 30  1  0  0  0  0
 12 13  2  0  0  0  0
 12 14  1  0  0  0  0
 13 31  1  0  0  0  0
 14 15  2  0  0  0  0
 14 32  1  0  0  0  0
 15 33  1  0  0  0  0
 16 17  2  0  0  0  0
 16 22  1  0  0  0  0
 17 18  1  0  0  0  0
 17 34  1  0  0  0  0
 18 19  2  0  0  0  0
 18 35  1  0  0  0  0
 19 20  1  0  0  0  0
 19 21  1  0  0  0  0
 20 36  1  0  0  0  0
 20 37  1  0  0  0  0
 21 22  2  0  0  0  0
 21 38  1  0  0  0  0
 22 39  1  0  0  0  0
M  END
$$$$

 OpenBabel12201709243D

 11 10  0  0  0  0  0  0  0  0999 V2000
    1.5642    1.0762   -0.1918 C   0  0  0  0  0  0  0  0  0  0  0  0
    2.4307    0.0971    0.1002 C   0  0  0  0  0  0  0  0  0  0  0  0
    3.2097    0.0016    1.3769 C   0  0  0  0  0  0  0  0  0  0  0  0
    4.6365    0.0088    1.0407 N   0  0  0  0  0  0  0  0  0  0  0  0
    5.3544   -0.0415    1.9677 C   0  0  0  0  0  0  0  0  0  0  0  0
    6.3367   -0.1127    3.2178 S   0  0  0  0  0  0  0  0  0  0  0  0
    1.0351    1.0824   -1.1402 H   0  0  0  0  0  0  0  0  0  0  0  0
    1.3677    1.8921    0.4965 H   0  0  0  0  0  0  0  0  0  0  0  0
    2.5952   -0.6951   -0.6271 H   0  0  0  0  0  0  0  0  0  0  0  0
    2.9340   -0.9331    1.8828 H   0  0  0  0  0  0  0  0  0  0  0  0
    2.9603    0.8365    2.0454 H   0  0  0  0  0  0  0  0  0  0  0  0
  1  2  2  0  0  0  0
  1  7  1  0  0  0  0
  1  8  1  0  0  0  0
  2  3  1  0  0  0  0
  2  9  1  0  0  0  0
  3  4  1  0  0  0  0
  3 10  1  0  0  0  0
  3 11  1  0  0  0  0
  4  5  2  0  0  0  0
  5  6  2  0  0  0  0
M  END
$$$$

 OpenBabel12201709243D

  8  7  0  0  0  0  0  0  0  0999 V2000
    1.2224   -0.0501    0.0884 N   0  0  0  0  0  0  0  0  0  0  0  0
    2.5669   -0.0095    0.0303 C   0  0  0  0  0  0  0  0  0  0  0  0
    3.1770    0.5961   -0.8358 O   0  0  0  0  0  0  0  0  0  0  0  0
    3.1778   -0.6970    1.0136 N   0  0  0  0  0  0  0  0  0  0  0  0
    0.7100    0.4489   -0.6254 H   0  0  0  0  0  0  0  0  0  0  0  0
    0.7170   -0.5484    0.8010 H   0  0  0  0  0  0  0  0  0  0  0  0
    2.6775   -1.1970    1.7287 H   0  0  0  0  0  0  0  0  0  0  0  0
    4.1883   -0.7017    1.0204 H   0  0  0  0  0  0  0  0  0  0  0  0
  1  2  1  0  0  0  0
  1  5  1  0  0  0  0
  1  6  1  0  0  0  0
  2  3  2  0  0  0  0
  2  4  1  0  0  0  0
  4  7  1  0  0  0  0
  4  8  1  0  0  0  0
M  END
$$$$

 OpenBabel12201709243D

 12 11  0  0  0  0  0  0  0  0999 V2000
    1.0548   -0.0419    0.0442 C   0  0  0  0  0  0  0  0  0  0  0  0
    2.5203   -0.0419    0.0439 N   0  0  0  0  0  0  0  0  0  0  0  0
    3.0419   -0.2495   -1.3097 C   0  0  0  0  0  0  0  0  0  0  0  0
    3.0214    1.2148    0.5508 N   0  0  0  0  0  0  0  0  0  0  0  0
    0.6731   -1.0055   -0.3113 H   0  0  0  0  0  0  0  0  0  0  0  0
    0.6374    0.7496   -0.5894 H   0  0  0  0  0  0  0  0  0  0  0  0
    0.6715    0.0943    1.0620 H   0  0  0  0  0  0  0  0  0  0  0  0
    2.7064   -1.2152   -1.7041 H   0  0  0  0  0  0  0  0  0  0  0  0
    4.1378   -0.2760   -1.2999 H   0  0  0  0  0  0  0  0  0  0  0  0
    2.7227    0.5365   -2.0045 H   0  0  0  0  0  0  0  0  0  0  0  0
    2.8557    1.2919    1.5566 H   0  0  0  0  0  0  0  0  0  0  0  0
    2.5718    2.0228    0.1158 H   0  0  0  0  0  0  0  0  0  0  0  0
  1  2  1  0  0  0  0
  1  5  1  0  0  0  0
  1  6  1  0  0  0  0
  1  7  1  0  0  0  0
  2  3  1  0  0  0  0
  2  4  1  0  0  0  0
  3  8  1  0  0  0  0
  3  9  1  0  0  0  0
  3 10  1  0  0  0  0
  4 11  1  0  0  0  0
  4 12  1  0  0  0  0
M  END
$$$$

 OpenBabel12201709243D

 29 30  0  0  1  0  0  0  0  0999 V2000
    1.1191   -0.3629    0.4418 C   0  0  0  0  0  0  0  0  0  0  0  0
    2.5367    0.0735    0.0686 C   0  0  0  0  0  0  0  0  0  0  0  0
    3.0558   -0.4803   -1.2994 C   0  0  3  0  0  0  0  0  0  0  0  0
    2.1418    0.0674   -2.3838 C   0  0  0  0  0  0  0  0  0  0  0  0
    1.9115    1.2674   -2.5453 O   0  0  0  0  0  0  0  0  0  0  0  0
    1.5417   -0.8309   -3.2115 N   0  0  0  0  0  0  0  0  0  0  0  0
    1.6587   -2.1624   -3.0415 C   0  0  0  0  0  0  0  0  0  0  0  0
    2.3269   -2.7481   -2.1290 N   0  0  0  0  0  0  0  0  0  0  0  0
    2.9966   -2.0132   -1.1823 C   0  0  0  0  0  0  0  0  0  0  0  0
    3.5698   -2.5860   -0.2543 O   0  0  0  0  0  0  0  0  0  0  0  0
    0.9907   -2.8967   -3.9412 O   0  0  0  0  0  0  0  0  0  0  0  0
    4.5115   -0.0354   -1.6048 C   0  0  0  0  0  0  0  0  0  0  0  0
    5.3390   -0.8165   -2.4373 C   0  0  0  0  0  0  0  0  0  0  0  0
    6.6726   -0.4664   -2.6687 C   0  0  0  0  0  0  0  0  0  0  0  0
    7.2027    0.6849   -2.0976 C   0  0  0  0  0  0  0  0  0  0  0  0
    6.3909    1.5023   -1.3194 C   0  0  0  0  0  0  0  0  0  0  0  0
    5.0572    1.1531   -1.0851 C   0  0  0  0  0  0  0  0  0  0  0  0
    0.8846   -0.0247    1.4566 H   0  0  0  0  0  0  0  0  0  0  0  0
    0.9993   -1.4494    0.4213 H   0  0  0  0  0  0  0  0  0  0  0  0
    0.3794    0.0794   -0.2326 H   0  0  0  0  0  0  0  0  0  0  0  0
    3.2156   -0.2361    0.8743 H   0  0  0  0  0  0  0  0  0  0  0  0
    2.5323    1.1701    0.0707 H   0  0  0  0  0  0  0  0  0  0  0  0
    0.9549   -0.4260   -3.9242 H   0  0  0  0  0  0  0  0  0  0  0  0
    0.5099   -2.3715   -4.5932 H   0  0  0  0  0  0  0  0  0  0  0  0
    4.9758   -1.7331   -2.8992 H   0  0  0  0  0  0  0  0  0  0  0  0
    7.3017   -1.1054   -3.2836 H   0  0  0  0  0  0  0  0  0  0  0  0
    8.2451    0.9452   -2.2590 H   0  0  0  0  0  0  0  0  0  0  0  0
    6.7965    2.4120   -0.8832 H   0  0  0  0  0  0  0  0  0  0  0  0
    4.4659    1.8343   -0.4789 H   0  0  0  0  0  0  0  0  0  0  0  0
  1  2  1  0  0  0  0
  1 18  1  0  0  0  0
  1 19  1  0  0  0  0
  1 20  1  0  0  0  0
  2  3  1  0  0  0  0
  2 21  1  0  0  0  0
  2 22  1  0  0  0  0
  3  4  1  0  0  0  0
  3  9  1  0  0  0  0
  3 12  1  0  0  0  0
  4  5  2  0  0  0  0
  4  6  1  0  0  0  0
  6  7  1  0  0  0  0
  6 23  1  0  0  0  0
  7  8  2  0  0  0  0
  7 11  1  0  0  0  0
  8  9  1  0  0  0  0
  9 10  2  0  0  0  0
 11 24  1  0  0  0  0
 12 13  2  0  0  0  0
 12 17  1  0  0  0  0
 13 14  1  0  0  0  0
 13 25  1  0  0  0  0
 14 15  2  0  0  0  0
 14 26  1  0  0  0  0
 15 16  1  0  0  0  0
 15 27  1  0  0  0  0
 16 17  2  0  0  0  0
 16 28  1  0  0  0  0
 17 29  1  0  0  0  0
M  END
$$$$

 OpenBabel12201709243D

 31 33  0  0  0  0  0  0  0  0999 V2000
    1.3358   -0.2513    0.6977 O   0  0  0  0  0  0  0  0  0  0  0  0
    2.4712   -0.1145    0.2788 C   0  0  0  0  0  0  0  0  0  0  0  0
    3.0757    1.0547   -0.0066 N   0  0  0  0  0  0  0  0  0  0  0  0
    4.2952    0.8346   -0.5692 C   0  0  0  0  0  0  0  0  0  0  0  0
    5.0005    1.7323   -1.0163 O   0  0  0  0  0  0  0  0  0  0  0  0
    4.6068   -0.7005   -0.5437 C   0  0  0  0  0  0  0  0  0  0  0  0
    3.3257   -1.1407   -0.0092 N   0  0  0  0  0  0  0  0  0  0  0  0
    5.7615   -0.9656    0.4370 C   0  0  0  0  0  0  0  0  0  0  0  0
    5.6114   -1.7856    1.5722 C   0  0  0  0  0  0  0  0  0  0  0  0
    6.6622   -1.9661    2.4755 C   0  0  0  0  0  0  0  0  0  0  0  0
    7.8833   -1.3342    2.2626 C   0  0  0  0  0  0  0  0  0  0  0  0
    8.0623   -0.5364    1.1363 C   0  0  0  0  0  0  0  0  0  0  0  0
    7.0159   -0.3614    0.2269 C   0  0  0  0  0  0  0  0  0  0  0  0
    4.7952   -1.3482   -1.9214 C   0  0  0  0  0  0  0  0  0  0  0  0
    4.6235   -0.6392   -3.1241 C   0  0  0  0  0  0  0  0  0  0  0  0
    4.7375   -1.2784   -4.3629 C   0  0  0  0  0  0  0  0  0  0  0  0
    5.0219   -2.6387   -4.4273 C   0  0  0  0  0  0  0  0  0  0  0  0
    5.1961   -3.3631   -3.2527 C   0  0  0  0  0  0  0  0  0  0  0  0
    5.0824   -2.7265   -2.0138 C   0  0  0  0  0  0  0  0  0  0  0  0
    2.6358    1.9540    0.0758 H   0  0  0  0  0  0  0  0  0  0  0  0
    3.0252   -2.1025    0.0433 H   0  0  0  0  0  0  0  0  0  0  0  0
    4.6700   -2.2870    1.7837 H   0  0  0  0  0  0  0  0  0  0  0  0
    6.5215   -2.5925    3.3533 H   0  0  0  0  0  0  0  0  0  0  0  0
    8.6944   -1.4614    2.9749 H   0  0  0  0  0  0  0  0  0  0  0  0
    9.0150   -0.0403    0.9679 H   0  0  0  0  0  0  0  0  0  0  0  0
    7.1851    0.2744   -0.6420 H   0  0  0  0  0  0  0  0  0  0  0  0
    4.3923    0.4238   -3.1306 H   0  0  0  0  0  0  0  0  0  0  0  0
    4.5983   -0.7099   -5.2796 H   0  0  0  0  0  0  0  0  0  0  0  0
    5.1056   -3.1328   -5.3918 H   0  0  0  0  0  0  0  0  0  0  0  0
    5.4167   -4.4267   -3.2998 H   0  0  0  0  0  0  0  0  0  0  0  0
    5.2176   -3.3238   -1.1137 H   0  0  0  0  0  0  0  0  0  0  0  0
  1  2  2  0  0  0  0
  2  3  1  0  0  0  0
  2  7  1  0  0  0  0
  3  4  1  0  0  0  0
  3 20  1  0  0  0  0
  4  5  2  0  0  0  0
  4  6  1  0  0  0  0
  6  7  1  0  0  0  0
  6  8  1  0  0  0  0
  6 14  1  0  0  0  0
  7 21  1  0  0  0  0
  8  9  2  0  0  0  0
  8 13  1  0  0  0  0
  9 10  1  0  0  0  0
  9 22  1  0  0  0  0
 10 11  2  0  0  0  0
 10 23  1  0  0  0  0
 11 12  1  0  0  0  0
 11 24  1  0  0  0  0
 12 13  2  0  0  0  0
 12 25  1  0  0  0  0
 13 26  1  0  0  0  0
 14 15  2  0  0  0  0
 14 19  1  0  0  0  0
 15 16  1  0  0  0  0
 15 27  1  0  0  0  0
 16 17  2  0  0  0  0
 16 28  1  0  0  0  0
 17 18  1  0  0  0  0
 17 29  1  0  0  0  0
 18 19  2  0  0  0  0
 18 30  1  0  0  0  0
 19 31  1  0  0  0  0
M  END
$$$$

 OpenBabel12201709243D

 45 46  0  0  1  0  0  0  0  0999 V2000
    6.7330   -3.6772    1.7687 O   0  0  0  0  0  0  0  0  0  0  0  0
    5.8311   -2.5898    1.5778 C   0  0  0  0  0  0  0  0  0  0  0  0
    5.7997   -2.1436    0.1078 C   0  0  3  0  0  0  0  0  0  0  0  0
    5.2938   -3.1818   -0.7570 O   0  0  0  0  0  0  0  0  0  0  0  0
    4.2280   -2.6699   -1.5687 C   0  0  3  0  0  0  0  0  0  0  0  0
    2.8986   -3.3280   -1.1224 C   0  0  0  0  0  0  0  0  0  0  0  0
    2.5129   -2.9605    0.2073 O   0  0  0  0  0  0  0  0  0  0  0  0
    4.5144   -2.8662   -2.9722 O   0  0  0  0  0  0  0  0  0  0  0  0
    4.6893   -4.2160   -3.3896 C   0  0  3  0  0  0  0  0  0  0  0  0
    3.4446   -4.9072   -3.5412 O   0  0  0  0  0  0  0  0  0  0  0  0
    2.5758   -4.3307   -4.5463 C   0  0  3  0  0  0  0  0  0  0  0  0
    1.2936   -5.1659   -4.5441 C   0  0  0  0  0  0  0  0  0  0  0  0
    0.6991   -5.1021   -3.2432 O   0  0  0  0  0  0  0  0  0  0  0  0
    3.2258   -4.2835   -5.9393 C   0  0  3  0  0  0  0  0  0  0  0  0
    3.3522   -5.6037   -6.4922 O   0  0  0  0  0  0  0  0  0  0  0  0
    4.6022   -3.6041   -5.8379 C   0  0  3  0  0  0  0  0  0  0  0  0
    5.2817   -3.6690   -7.0955 O   0  0  0  0  0  0  0  0  0  0  0  0
    5.4467   -4.2783   -4.7416 C   0  0  3  0  0  0  0  0  0  0  0  0
    5.6702   -5.6498   -5.1542 O   0  0  0  0  0  0  0  0  0  0  0  0
    4.1908   -1.1344   -1.3537 C   0  0  3  0  0  0  0  0  0  0  0  0
    4.9281   -0.4028   -2.3633 O   0  0  0  0  0  0  0  0  0  0  0  0
    4.9059   -0.9173   -0.0361 C   0  0  3  0  0  0  0  0  0  0  0  0
    5.6780    0.2884   -0.0510 O   0  0  0  0  0  0  0  0  0  0  0  0
    6.9009   -3.7361    2.7254 H   0  0  0  0  0  0  0  0  0  0  0  0
    6.1694   -1.7611    2.2107 H   0  0  0  0  0  0  0  0  0  0  0  0
    4.8406   -2.9117    1.9178 H   0  0  0  0  0  0  0  0  0  0  0  0
    6.8266   -1.9462   -0.2202 H   0  0  0  0  0  0  0  0  0  0  0  0
    2.9910   -4.4203   -1.1346 H   0  0  0  0  0  0  0  0  0  0  0  0
    2.0831   -3.0466   -1.7893 H   0  0  0  0  0  0  0  0  0  0  0  0
    1.7535   -3.5316    0.4378 H   0  0  0  0  0  0  0  0  0  0  0  0
    5.2795   -4.7701   -2.6517 H   0  0  0  0  0  0  0  0  0  0  0  0
    2.3324   -3.3124   -4.2191 H   0  0  0  0  0  0  0  0  0  0  0  0
    1.4962   -6.2220   -4.7526 H   0  0  0  0  0  0  0  0  0  0  0  0
    0.5706   -4.7888   -5.2716 H   0  0  0  0  0  0  0  0  0  0  0  0
    1.3560   -5.5063   -2.6468 H   0  0  0  0  0  0  0  0  0  0  0  0
    2.5900   -3.7268   -6.6374 H   0  0  0  0  0  0  0  0  0  0  0  0
    4.1586   -6.0060   -6.1090 H   0  0  0  0  0  0  0  0  0  0  0  0
    4.4717   -2.5417   -5.6016 H   0  0  0  0  0  0  0  0  0  0  0  0
    5.3847   -4.6180   -7.3042 H   0  0  0  0  0  0  0  0  0  0  0  0
    6.4221   -3.7917   -4.6720 H   0  0  0  0  0  0  0  0  0  0  0  0
    5.6001   -6.2143   -4.3624 H   0  0  0  0  0  0  0  0  0  0  0  0
    3.1765   -0.7238   -1.3448 H   0  0  0  0  0  0  0  0  0  0  0  0
    5.3181   -1.0820   -2.9476 H   0  0  0  0  0  0  0  0  0  0  0  0
    4.1902   -0.8412    0.7863 H   0  0  0  0  0  0  0  0  0  0  0  0
    5.6972    0.5693   -0.9913 H   0  0  0  0  0  0  0  0  0  0  0  0
  1  2  1  0  0  0  0
  1 24  1  0  0  0  0
  2  3  1  0  0  0  0
  2 25  1  0  0  0  0
  2 26  1  0  0  0  0
  3  4  1  0  0  0  0
  3 22  1  0  0  0  0
  3 27  1  0  0  0  0
  4  5  1  0  0  0  0
  5  6  1  0  0  0  0
  5  8  1  0  0  0  0
  5 20  1  0  0  0  0
  6  7  1  0  0  0  0
  6 28  1  0  0  0  0
  6 29  1  0  0  0  0
  7 30  1  0  0  0  0
  8  9  1  0  0  0  0
  9 10  1  0  0  0  0
  9 18  1  0  0  0  0
  9 31  1  0  0  0  0
 10 11  1  0  0  0  0
 11 12  1  0  0  0  0
 11 14  1  0  0  0  0
 11 32  1  0  0  0  0
 12 13  1  0  0  0  0
 12 33  1  0  0  0  0
 12 34  1  0  0  0  0
 13 35  1  0  0  0  0
 14 15  1  0  0  0  0
 14 16  1  0  0  0  0
 14 36  1  0  0  0  0
 15 37  1  0  0  0  0
 16 17  1  0  0  0  0
 16 18  1  0  0  0  0
 16 38  1  0  0  0  0
 17 39  1  0  0  0  0
 18 19  1  0  0  0  0
 18 40  1  0  0  0  0
 19 41  1  0  0  0  0
 20 21  1  0  0  0  0
 20 22  1  0  0  0  0
 20 42  1  0  0  0  0
 21 43  1  0  0  0  0
 22 23  1  0  0  0  0
 22 44  1  0  0  0  0
 23 45  1  0  0  0  0
M  END
$$$$

 OpenBabel12201709243D

 13 12  0  0  1  0  0  0  0  0999 V2000
    0.9203   -0.1000    0.0315 C   0  0  0  0  0  0  0  0  0  0  0  0
    2.4375   -0.0653    0.0489 C   0  0  3  0  0  0  0  0  0  0  0  0
    2.9264   -0.5963   -1.1835 O   0  0  0  0  0  0  0  0  0  0  0  0
    2.9695    1.3579    0.2747 C   0  0  0  0  0  0  0  0  0  0  0  0
    4.3945    1.3896    0.2258 O   0  0  0  0  0  0  0  0  0  0  0  0
    0.5627   -1.1213   -0.1397 H   0  0  0  0  0  0  0  0  0  0  0  0
    0.5220    0.5131   -0.7850 H   0  0  0  0  0  0  0  0  0  0  0  0
    0.5028    0.2612    0.9762 H   0  0  0  0  0  0  0  0  0  0  0  0
    2.8137   -0.7247    0.8396 H   0  0  0  0  0  0  0  0  0  0  0  0
    3.0027    0.1371   -1.8187 H   0  0  0  0  0  0  0  0  0  0  0  0
    2.6475    1.7452    1.2458 H   0  0  0  0  0  0  0  0  0  0  0  0
    2.6106    2.0353   -0.5071 H   0  0  0  0  0  0  0  0  0  0  0  0
    4.7243    0.5422    0.5727 H   0  0  0  0  0  0  0  0  0  0  0  0
  1  2  1  0  0  0  0
  1  6  1  0  0  0  0
  1  7  1  0  0  0  0
  1  8  1  0  0  0  0
  2  3  1  0  0  0  0
  2  4  1  0  0  0  0
  2  9  1  0  0  0  0
  3 10  1  0  0  0  0
  4  5  1  0  0  0  0
  4 11  1  0  0  0  0
  4 12  1  0  0  0  0
  5 13  1  0  0  0  0
M  END
$$$$

 OpenBabel12201709243D

  9  9  0  0  0  0  0  0  0  0999 V2000
    1.1270   -0.1123    0.4462 O   0  0  0  0  0  0  0  0  0  0  0  0
    2.2770    0.0261    0.1005 C   0  0  0  0  0  0  0  0  0  0  0  0
    3.3157    1.1571    0.0493 C   0  0  0  0  0  0  0  0  0  0  0  0
    4.1962    0.0693   -0.5540 C   0  0  0  0  0  0  0  0  0  0  0  0
    3.1242   -0.9005   -0.4181 O   0  0  0  0  0  0  0  0  0  0  0  0
    3.6204    1.5247    1.0305 H   0  0  0  0  0  0  0  0  0  0  0  0
    3.0502    1.9780   -0.6185 H   0  0  0  0  0  0  0  0  0  0  0  0
    5.0729   -0.2109    0.0365 H   0  0  0  0  0  0  0  0  0  0  0  0
    4.4746    0.2156   -1.6015 H   0  0  0  0  0  0  0  0  0  0  0  0
  1  2  2  0  0  0  0
  2  3  1  0  0  0  0
  2  5  1  0  0  0  0
  3  4  1  0  0  0  0
  3  6  1  0  0  0  0
  3  7  1  0  0  0  0
  4  5  1  0  0  0  0
  4  8  1  0  0  0  0
  4  9  1  0  0  0  0
M  END
$$$$

 OpenBabel12201709243D

 38 38  0  0  0  0  0  0  0  0999 V2000
    2.7480   -1.4236    0.2632 C   0  0  0  0  0  0  0  0  0  0  0  0
    2.2929    0.0140    0.1007 C   0  0  0  0  0  0  0  0  0  0  0  0
    3.0295    1.0153    0.9961 C   0  0  0  0  0  0  0  0  0  0  0  0
    4.5187    1.1800    0.7455 N   0  0  0  0  0  0  0  0  0  0  0  0
    4.8095    1.5263   -0.6924 C   0  0  0  0  0  0  0  0  0  0  0  0
    6.2819    1.4602   -1.1087 C   0  0  0  0  0  0  0  0  0  0  0  0
    6.9503    0.1222   -0.8370 C   0  0  0  0  0  0  0  0  0  0  0  0
    5.1977    2.3134    1.8994 S   0  0  0  0  0  0  0  0  0  0  0  0
    6.5279    2.7047    1.5027 O   0  0  0  0  0  0  0  0  0  0  0  0
    4.1863    3.3127    2.1790 O   0  0  0  0  0  0  0  0  0  0  0  0
    5.4368    1.3482    3.3835 C   0  0  0  0  0  0  0  0  0  0  0  0
    6.4124    0.3431    3.3846 C   0  0  0  0  0  0  0  0  0  0  0  0
    6.7639   -0.2807    4.5857 C   0  0  0  0  0  0  0  0  0  0  0  0
    6.1492    0.1018    5.7850 C   0  0  0  0  0  0  0  0  0  0  0  0
    5.1933    1.1289    5.7811 C   0  0  0  0  0  0  0  0  0  0  0  0
    4.8306    1.7457    4.5778 C   0  0  0  0  0  0  0  0  0  0  0  0
    6.5970   -0.5557    7.0425 C   0  0  0  0  0  0  0  0  0  0  0  0
    7.7194   -1.0022    7.1920 O   0  0  0  0  0  0  0  0  0  0  0  0
    5.6341   -0.6510    7.9823 O   0  0  0  0  0  0  0  0  0  0  0  0
    2.1249   -2.0799   -0.3551 H   0  0  0  0  0  0  0  0  0  0  0  0
    2.6472   -1.7511    1.3023 H   0  0  0  0  0  0  0  0  0  0  0  0
    3.7873   -1.5527   -0.0494 H   0  0  0  0  0  0  0  0  0  0  0  0
    1.2263    0.0605    0.3590 H   0  0  0  0  0  0  0  0  0  0  0  0
    2.3421    0.3019   -0.9539 H   0  0  0  0  0  0  0  0  0  0  0  0
    2.8789    0.7184    2.0400 H   0  0  0  0  0  0  0  0  0  0  0  0
    2.5437    1.9882    0.8463 H   0  0  0  0  0  0  0  0  0  0  0  0
    4.3931    2.5147   -0.9194 H   0  0  0  0  0  0  0  0  0  0  0  0
    4.2963    0.8081   -1.3387 H   0  0  0  0  0  0  0  0  0  0  0  0
    6.8662    2.2616   -0.6561 H   0  0  0  0  0  0  0  0  0  0  0  0
    6.3417    1.6581   -2.1867 H   0  0  0  0  0  0  0  0  0  0  0  0
    6.7550   -0.2424    0.1735 H   0  0  0  0  0  0  0  0  0  0  0  0
    8.0354    0.2177   -0.9536 H   0  0  0  0  0  0  0  0  0  0  0  0
    6.6039   -0.6342   -1.5480 H   0  0  0  0  0  0  0  0  0  0  0  0
    6.9408    0.0828    2.4711 H   0  0  0  0  0  0  0  0  0  0  0  0
    7.5474   -1.0386    4.5900 H   0  0  0  0  0  0  0  0  0  0  0  0
    4.7704    1.5074    6.7082 H   0  0  0  0  0  0  0  0  0  0  0  0
    4.1293    2.5790    4.5925 H   0  0  0  0  0  0  0  0  0  0  0  0
    4.7357   -0.4204    7.6859 H   0  0  0  0  0  0  0  0  0  0  0  0
  1  2  1  0  0  0  0
  1 20  1  0  0  0  0
  1 21  1  0  0  0  0
  1 22  1  0  0  0  0
  2  3  1  0  0  0  0
  2 23  1  0  0  0  0
  2 24  1  0  0  0  0
  3  4  1  0  0  0  0
  3 25  1  0  0  0  0
  3 26  1  0  0  0  0
  4  5  1  0  0  0  0
  4  8  1  0  0  0  0
  5  6  1  0  0  0  0
  5 27  1  0  0  0  0
  5 28  1  0  0  0  0
  6  7  1  0  0  0  0
  6 29  1  0  0  0  0
  6 30  1  0  0  0  0
  7 31  1  0  0  0  0
  7 32  1  0  0  0  0
  7 33  1  0  0  0  0
  8  9  2  0  0  0  0
  8 10  2  0  0  0  0
  8 11  1  0  0  0  0
 11 12  2  0  0  0  0
 11 16  1  0  0  0  0
 12 13  1  0  0  0  0
 12 34  1  0  0  0  0
 13 14  2  0  0  0  0
 13 35  1  0  0  0  0
 14 15  1  0  0  0  0
 14 17  1  0  0  0  0
 15 16  2  0  0  0  0
 15 36  1  0  0  0  0
 16 37  1  0  0  0  0
 17 18  2  0  0  0  0
 17 19  1  0  0  0  0
 19 38  1  0  0  0  0
M  END
$$$$

 OpenBabel12201709243D

 33 34  0  0  0  0  0  0  0  0999 V2000
    3.0879    0.9450   -2.5061 C   0  0  0  0  0  0  0  0  0  0  0  0
    3.3759    0.3763   -1.1465 C   0  0  0  0  0  0  0  0  0  0  0  0
    2.8048    0.9384   -0.0171 C   0  0  0  0  0  0  0  0  0  0  0  0
    3.0958    0.3371    1.1927 C   0  0  0  0  0  0  0  0  0  0  0  0
    2.5554    0.8755    2.4815 C   0  0  0  0  0  0  0  0  0  0  0  0
    3.8848   -0.7500    1.2796 N   0  0  0  0  0  0  0  0  0  0  0  0
    4.3898   -1.2027    0.1343 C   0  0  0  0  0  0  0  0  0  0  0  0
    5.2381   -2.3043    0.2197 N   0  0  0  0  0  0  0  0  0  0  0  0
    4.4778   -3.7907    0.0877 S   0  0  0  0  0  0  0  0  0  0  0  0
    5.5316   -4.7840    0.1790 O   0  0  0  0  0  0  0  0  0  0  0  0
    3.3280   -3.8631    0.9602 O   0  0  0  0  0  0  0  0  0  0  0  0
    3.8843   -3.8478   -1.5921 C   0  0  0  0  0  0  0  0  0  0  0  0
    4.6653   -4.4355   -2.5901 C   0  0  0  0  0  0  0  0  0  0  0  0
    4.1734   -4.5129   -3.8979 C   0  0  0  0  0  0  0  0  0  0  0  0
    2.9246   -3.9775   -4.2265 C   0  0  0  0  0  0  0  0  0  0  0  0
    2.3995   -4.1532   -5.5116 N   0  0  0  0  0  0  0  0  0  0  0  0
    2.1150   -3.4822   -3.1992 C   0  0  0  0  0  0  0  0  0  0  0  0
    2.5895   -3.4056   -1.8861 C   0  0  0  0  0  0  0  0  0  0  0  0
    4.1969   -0.6948   -1.0848 N   0  0  0  0  0  0  0  0  0  0  0  0
    2.3928    1.7895   -2.4513 H   0  0  0  0  0  0  0  0  0  0  0  0
    2.6359    0.1781   -3.1420 H   0  0  0  0  0  0  0  0  0  0  0  0
    4.0142    1.2958   -2.9692 H   0  0  0  0  0  0  0  0  0  0  0  0
    2.1600    1.8066   -0.0762 H   0  0  0  0  0  0  0  0  0  0  0  0
    1.8918    1.7305    2.3193 H   0  0  0  0  0  0  0  0  0  0  0  0
    3.3819    1.2009    3.1216 H   0  0  0  0  0  0  0  0  0  0  0  0
    1.9895    0.0968    3.0011 H   0  0  0  0  0  0  0  0  0  0  0  0
    6.0193   -2.2257   -0.4150 H   0  0  0  0  0  0  0  0  0  0  0  0
    5.6389   -4.8592   -2.3612 H   0  0  0  0  0  0  0  0  0  0  0  0
    4.7746   -5.0032   -4.6593 H   0  0  0  0  0  0  0  0  0  0  0  0
    3.1051   -4.2167   -6.2395 H   0  0  0  0  0  0  0  0  0  0  0  0
    1.6632   -3.4949   -5.7493 H   0  0  0  0  0  0  0  0  0  0  0  0
    1.1008   -3.1550   -3.4125 H   0  0  0  0  0  0  0  0  0  0  0  0
    1.9458   -3.0108   -1.1021 H   0  0  0  0  0  0  0  0  0  0  0  0
  1  2  1  0  0  0  0
  1 20  1  0  0  0  0
  1 21  1  0  0  0  0
  1 22  1  0  0  0  0
  2  3  2  0  0  0  0
  2 19  1  0  0  0  0
  3  4  1  0  0  0  0
  3 23  1  0  0  0  0
  4  5  1  0  0  0  0
  4  6  2  0  0  0  0
  5 24  1  0  0  0  0
  5 25  1  0  0  0  0
  5 26  1  0  0  0  0
  6  7  1  0  0  0  0
  7  8  1  0  0  0  0
  7 19  2  0  0  0  0
  8  9  1  0  0  0  0
  8 27  1  0  0  0  0
  9 10  2  0  0  0  0
  9 11  2  0  0  0  0
  9 12  1  0  0  0  0
 12 13  2  0  0  0  0
 12 18  1  0  0  0  0
 13 14  1  0  0  0  0
 13 28  1  0  0  0  0
 14 15  2  0  0  0  0
 14 29  1  0  0  0  0
 15 16  1  0  0  0  0
 15 17  1  0  0  0  0
 16 30  1  0  0  0  0
 16 31  1  0  0  0  0
 17 18  2  0  0  0  0
 17 32  1  0  0  0  0
 18 33  1  0  0  0  0
M  END
$$$$

 OpenBabel12201709243D

 24 26  0  0  1  0  0  0  0  0999 V2000
    1.1801    0.3256   -0.4748 Cl  0  0  0  0  0  0  0  0  0  0  0  0
    2.9008   -0.0688   -0.2006 C   0  0  3  0  0  0  0  0  0  0  0  0
    2.9655   -1.1075    0.9835 C   0  0  0  0  0  0  0  0  0  0  0  0
    4.0686   -0.5330    1.8378 C   0  0  3  0  0  0  0  0  0  0  0  0
    3.7949    0.9845    1.7249 C   0  0  3  0  0  0  0  0  0  0  0  0
    3.8203    1.1527    0.2280 C   0  0  3  0  0  0  0  0  0  0  0  0
    3.2849    2.7520   -0.2962 Cl  0  0  0  0  0  0  0  0  0  0  0  0
    4.6223    1.5388    2.9114 C   0  0  3  0  0  0  0  0  0  0  0  0
    4.4974    3.2695    3.1352 Cl  0  0  0  0  0  0  0  0  0  0  0  0
    6.0232    0.9439    2.9651 C   0  0  0  0  0  0  0  0  0  0  0  0
    5.9123   -0.3506    3.3158 C   0  0  0  0  0  0  0  0  0  0  0  0
    7.1467   -1.4918    3.5378 Cl  0  0  0  0  0  0  0  0  0  0  0  0
    4.4280   -0.6781    3.3508 C   0  0  3  0  0  0  0  0  0  0  0  0
    3.9470   -2.1853    4.0786 Cl  0  0  0  0  0  0  0  0  0  0  0  0
    3.9706    0.6490    4.0585 C   0  0  0  0  0  0  0  0  0  0  0  0
    2.1904    0.7822    4.2908 Cl  0  0  0  0  0  0  0  0  0  0  0  0
    4.6706    0.9193    5.7124 Cl  0  0  0  0  0  0  0  0  0  0  0  0
    7.4473    1.8088    2.6635 Cl  0  0  0  0  0  0  0  0  0  0  0  0
    3.2781   -0.5077   -1.1296 H   0  0  0  0  0  0  0  0  0  0  0  0
    3.2400   -2.0992    0.6069 H   0  0  0  0  0  0  0  0  0  0  0  0
    2.0322   -1.1972    1.5422 H   0  0  0  0  0  0  0  0  0  0  0  0
    4.9723   -0.8010    1.2646 H   0  0  0  0  0  0  0  0  0  0  0  0
    2.7478    1.2179    1.9607 H   0  0  0  0  0  0  0  0  0  0  0  0
    4.8314    1.0102   -0.1707 H   0  0  0  0  0  0  0  0  0  0  0  0
  1  2  1  0  0  0  0
  2  3  1  0  0  0  0
  2  6  1  0  0  0  0
  2 19  1  0  0  0  0
  3  4  1  0  0  0  0
  3 20  1  0  0  0  0
  3 21  1  0  0  0  0
  4  5  1  0  0  0  0
  4 13  1  0  0  0  0
  4 22  1  0  0  0  0
  5  6  1  0  0  0  0
  5  8  1  0  0  0  0
  5 23  1  0  0  0  0
  6  7  1  0  0  0  0
  6 24  1  0  0  0  0
  8  9  1  0  0  0  0
  8 10  1  0  0  0  0
  8 15  1  0  0  0  0
 10 11  2  0  0  0  0
 10 18  1  0  0  0  0
 11 12  1  0  0  0  0
 11 13  1  0  0  0  0
 13 14  1  0  0  0  0
 13 15  1  0  0  0  0
 15 16  1  0  0  0  0
 15 17  1  0  0  0  0
M  END
$$$$

 OpenBabel12201709243D

 36 39  0  0  0  0  0  0  0  0999 V2000
    0.9624    0.0049   -0.0119 C   0  0  0  0  0  0  0  0  0  0  0  0
    2.4847    0.1002   -0.0137 C   0  0  0  0  0  0  0  0  0  0  0  0
    3.1253    1.3733   -0.0161 C   0  0  0  0  0  0  0  0  0  0  0  0
    2.4157    2.6105   -0.0196 C   0  0  0  0  0  0  0  0  0  0  0  0
    3.0443    3.8544   -0.0201 C   0  0  0  0  0  0  0  0  0  0  0  0
    4.4170    3.9070   -0.0176 C   0  0  0  0  0  0  0  0  0  0  0  0
    5.1387    2.7155   -0.0153 C   0  0  0  0  0  0  0  0  0  0  0  0
    4.5361    1.4218   -0.0151 C   0  0  0  0  0  0  0  0  0  0  0  0
    5.2884    0.1890   -0.0143 C   0  0  0  0  0  0  0  0  0  0  0  0
    6.8014    0.2862   -0.0135 C   0  0  0  0  0  0  0  0  0  0  0  0
    4.6682   -1.1336   -0.0129 C   0  0  0  0  0  0  0  0  0  0  0  0
    3.2405   -1.1232   -0.0135 C   0  0  0  0  0  0  0  0  0  0  0  0
    2.5577   -2.3564   -0.0128 C   0  0  0  0  0  0  0  0  0  0  0  0
    3.1973   -3.5870   -0.0133 C   0  0  0  0  0  0  0  0  0  0  0  0
    4.5759   -3.6601   -0.0143 C   0  0  0  0  0  0  0  0  0  0  0  0
    5.1518   -4.9468   -0.0164 C   0  0  0  0  0  0  0  0  0  0  0  0
    6.5259   -5.1257   -0.0175 C   0  0  0  0  0  0  0  0  0  0  0  0
    7.3331   -4.0109   -0.0166 C   0  0  0  0  0  0  0  0  0  0  0  0
    6.7554   -2.7329   -0.0150 C   0  0  0  0  0  0  0  0  0  0  0  0
    5.3505   -2.4689   -0.0141 C   0  0  0  0  0  0  0  0  0  0  0  0
    0.4331    0.9554   -0.0063 H   0  0  0  0  0  0  0  0  0  0  0  0
    0.6216   -0.5252    0.8847 H   0  0  0  0  0  0  0  0  0  0  0  0
    0.6193   -0.5186   -0.9113 H   0  0  0  0  0  0  0  0  0  0  0  0
    1.3321    2.6466   -0.0220 H   0  0  0  0  0  0  0  0  0  0  0  0
    2.4584    4.7682   -0.0228 H   0  0  0  0  0  0  0  0  0  0  0  0
    4.9380    4.8599   -0.0179 H   0  0  0  0  0  0  0  0  0  0  0  0
    6.2141    2.8477   -0.0139 H   0  0  0  0  0  0  0  0  0  0  0  0
    7.2249    1.2863   -0.0131 H   0  0  0  0  0  0  0  0  0  0  0  0
    7.1948   -0.1688   -0.9276 H   0  0  0  0  0  0  0  0  0  0  0  0
    7.1946   -0.1694    0.9002 H   0  0  0  0  0  0  0  0  0  0  0  0
    1.4707   -2.4032   -0.0121 H   0  0  0  0  0  0  0  0  0  0  0  0
    2.5868   -4.4879   -0.0138 H   0  0  0  0  0  0  0  0  0  0  0  0
    4.5210   -5.8341   -0.0173 H   0  0  0  0  0  0  0  0  0  0  0  0
    6.9586   -6.1213   -0.0189 H   0  0  0  0  0  0  0  0  0  0  0  0
    8.4153   -4.1126   -0.0172 H   0  0  0  0  0  0  0  0  0  0  0  0
    7.4894   -1.9437   -0.0146 H   0  0  0  0  0  0  0  0  0  0  0  0
  1  2  1  0  0  0  0
  1 21  1  0  0  0  0
  1 22  1  0  0  0  0
  1 23  1  0  0  0  0
  2  3  2  0  0  0  0
  2 12  1  0  0  0  0
  3  4  1  0  0  0  0
  3  8  1  0  0  0  0
  4  5  2  0  0  0  0
  4 24  1  0  0  0  0
  5  6  1  0  0  0  0
  5 25  1  0  0  0  0
  6  7  2  0  0  0  0
  6 26  1  0  0  0  0
  7  8  1  0  0  0  0
  7 27  1  0  0  0  0
  8  9  2  0  0  0  0
  9 10  1  0  0  0  0
  9 11  1  0  0  0  0
 10 28  1  0  0  0  0
 10 29  1  0  0  0  0
 10 30  1  0  0  0  0
 11 12  2  0  0  0  0
 11 20  1  0  0  0  0
 12 13  1  0  0  0  0
 13 14  2  0  0  0  0
 13 31  1  0  0  0  0
 14 15  1  0  0  0  0
 14 32  1  0  0  0  0
 15 16  2  0  0  0  0
 15 20  1  0  0  0  0
 16 17  1  0  0  0  0
 16 33  1  0  0  0  0
 17 18  2  0  0  0  0
 17 34  1  0  0  0  0
 18 19  1  0  0  0  0
 18 35  1  0  0  0  0
 19 20  2  0  0  0  0
 19 36  1  0  0  0  0
M  END
$$$$

 OpenBabel12201709243D

 24 25  0  0  0  0  0  0  0  0999 V2000
    1.0640   -0.1370    0.0408 C   0  0  0  0  0  0  0  0  0  0  0  0
    2.5034   -0.0725    0.0401 N   0  0  0  0  0  0  0  0  0  0  0  0
    3.3635   -1.1382    0.0397 C   0  0  0  0  0  0  0  0  0  0  0  0
    4.6223   -0.7458    0.0387 N   0  0  0  0  0  0  0  0  0  0  0  0
    4.5563    0.6151    0.0383 C   0  0  0  0  0  0  0  0  0  0  0  0
    5.6167    1.4879    0.0367 N   0  0  0  0  0  0  0  0  0  0  0  0
    6.9891    1.0239    0.0348 C   0  0  0  0  0  0  0  0  0  0  0  0
    5.3749    2.8646    0.0361 C   0  0  0  0  0  0  0  0  0  0  0  0
    6.3064    3.6749    0.0350 O   0  0  0  0  0  0  0  0  0  0  0  0
    4.0311    3.2813    0.0367 N   0  0  0  0  0  0  0  0  0  0  0  0
    3.7475    4.7030    0.0334 C   0  0  0  0  0  0  0  0  0  0  0  0
    2.9176    2.4340    0.0384 C   0  0  0  0  0  0  0  0  0  0  0  0
    1.7550    2.8296    0.0389 O   0  0  0  0  0  0  0  0  0  0  0  0
    3.2681    1.0580    0.0392 C   0  0  0  0  0  0  0  0  0  0  0  0
    0.7450   -1.1823    0.0416 H   0  0  0  0  0  0  0  0  0  0  0  0
    0.6933    0.3609   -0.8587 H   0  0  0  0  0  0  0  0  0  0  0  0
    0.6941    0.3620    0.9400 H   0  0  0  0  0  0  0  0  0  0  0  0
    3.0263   -2.1672    0.0401 H   0  0  0  0  0  0  0  0  0  0  0  0
    7.0521   -0.0675    0.0317 H   0  0  0  0  0  0  0  0  0  0  0  0
    7.4967    1.4117    0.9239 H   0  0  0  0  0  0  0  0  0  0  0  0
    7.4957    1.4162   -0.8530 H   0  0  0  0  0  0  0  0  0  0  0  0
    4.6508    5.3172    0.0343 H   0  0  0  0  0  0  0  0  0  0  0  0
    3.1507    4.9474    0.9185 H   0  0  0  0  0  0  0  0  0  0  0  0
    3.1555    4.9433   -0.8560 H   0  0  0  0  0  0  0  0  0  0  0  0
  1  2  1  0  0  0  0
  1 15  1  0  0  0  0
  1 16  1  0  0  0  0
  1 17  1  0  0  0  0
  2  3  1  0  0  0  0
  2 14  1  0  0  0  0
  3  4  2  0  0  0  0
  3 18  1  0  0  0  0
  4  5  1  0  0  0  0
  5  6  1  0  0  0  0
  5 14  2  0  0  0  0
  6  7  1  0  0  0  0
  6  8  1  0  0  0  0
  7 19  1  0  0  0  0
  7 20  1  0  0  0  0
  7 21  1  0  0  0  0
  8  9  2  0  0  0  0
  8 10  1  0  0  0  0
 10 11  1  0  0  0  0
 10 12  1  0  0  0  0
 11 22  1  0  0  0  0
 11 23  1  0  0  0  0
 11 24  1  0  0  0  0
 12 13  2  0  0  0  0
 12 14  1  0  0  0  0
M  END
$$$$

 OpenBabel12201709243D

 30 31  0  0  0  0  0  0  0  0999 V2000
    1.0887    0.1651   -0.7676 C   0  0  0  0  0  0  0  0  0  0  0  0
    2.3651    0.0495    0.0683 C   0  0  0  0  0  0  0  0  0  0  0  0
    3.0575    1.3592    0.3808 C   0  0  0  0  0  0  0  0  0  0  0  0
    2.3826    2.4397   -0.0919 N   0  0  0  0  0  0  0  0  0  0  0  0
    2.8865    3.6453    0.1123 C   0  0  0  0  0  0  0  0  0  0  0  0
    2.1947    4.7167   -0.4093 N   0  0  0  0  0  0  0  0  0  0  0  0
    3.9699    3.8837    0.8324 N   0  0  0  0  0  0  0  0  0  0  0  0
    4.6257    2.8146    1.3174 C   0  0  0  0  0  0  0  0  0  0  0  0
    5.7327    3.1909    2.0825 N   0  0  0  0  0  0  0  0  0  0  0  0
    4.2623    1.4693    1.0968 C   0  0  0  0  0  0  0  0  0  0  0  0
    5.1160    0.3174    1.5664 C   0  0  0  0  0  0  0  0  0  0  0  0
    4.5931   -0.9078    2.0231 C   0  0  0  0  0  0  0  0  0  0  0  0
    5.4095   -1.9833    2.4125 C   0  0  0  0  0  0  0  0  0  0  0  0
    6.7884   -1.8410    2.4213 C   0  0  0  0  0  0  0  0  0  0  0  0
    7.7870   -3.1419    2.9362 Cl  0  0  0  0  0  0  0  0  0  0  0  0
    7.3532   -0.6416    2.0193 C   0  0  0  0  0  0  0  0  0  0  0  0
    6.5284    0.4040    1.5730 C   0  0  0  0  0  0  0  0  0  0  0  0
    0.6679   -0.8288   -0.9502 H   0  0  0  0  0  0  0  0  0  0  0  0
    1.2782    0.6404   -1.7348 H   0  0  0  0  0  0  0  0  0  0  0  0
    0.3272    0.7524   -0.2402 H   0  0  0  0  0  0  0  0  0  0  0  0
    3.0618   -0.6196   -0.4463 H   0  0  0  0  0  0  0  0  0  0  0  0
    2.0448   -0.4049    1.0086 H   0  0  0  0  0  0  0  0  0  0  0  0
    1.2298    4.4580   -0.5618 H   0  0  0  0  0  0  0  0  0  0  0  0
    2.3786    5.5466    0.1344 H   0  0  0  0  0  0  0  0  0  0  0  0
    5.7357    4.2103    2.1118 H   0  0  0  0  0  0  0  0  0  0  0  0
    5.6864    2.7864    3.0166 H   0  0  0  0  0  0  0  0  0  0  0  0
    3.5273   -1.0761    2.1081 H   0  0  0  0  0  0  0  0  0  0  0  0
    4.9528   -2.9222    2.7158 H   0  0  0  0  0  0  0  0  0  0  0  0
    8.4315   -0.5053    2.0398 H   0  0  0  0  0  0  0  0  0  0  0  0
    7.0296    1.3087    1.2298 H   0  0  0  0  0  0  0  0  0  0  0  0
  1  2  1  0  0  0  0
  1 18  1  0  0  0  0
  1 19  1  0  0  0  0
  1 20  1  0  0  0  0
  2  3  1  0  0  0  0
  2 21  1  0  0  0  0
  2 22  1  0  0  0  0
  3  4  2  0  0  0  0
  3 10  1  0  0  0  0
  4  5  1  0  0  0  0
  5  6  1  0  0  0  0
  5  7  2  0  0  0  0
  6 23  1  0  0  0  0
  6 24  1  0  0  0  0
  7  8  1  0  0  0  0
  8  9  1  0  0  0  0
  8 10  2  0  0  0  0
  9 25  1  0  0  0  0
  9 26  1  0  0  0  0
 10 11  1  0  0  0  0
 11 12  2  0  0  0  0
 11 17  1  0  0  0  0
 12 13  1  0  0  0  0
 12 27  1  0  0  0  0
 13 14  2  0  0  0  0
 13 28  1  0  0  0  0
 14 15  1  0  0  0  0
 14 16  1  0  0  0  0
 16 17  2  0  0  0  0
 16 29  1  0  0  0  0
 17 30  1  0  0  0  0
M  END
$$$$

 OpenBabel12201709243D

 40 42  0  0  1  0  0  0  0  0999 V2000
    3.9657   -0.2760   -1.2016 C   0  0  0  0  0  0  0  0  0  0  0  0
    2.8872   -0.2476   -0.0930 C   0  0  3  0  0  0  0  0  0  0  0  0
    2.8438    1.1723    0.5706 C   0  0  0  0  0  0  0  0  0  0  0  0
    2.6831    2.4885   -0.1594 N   0  0  0  0  0  0  0  0  0  0  0  0
    1.6668    2.6554   -1.1516 C   0  0  0  0  0  0  0  0  0  0  0  0
    1.1905    1.6175   -1.9669 C   0  0  0  0  0  0  0  0  0  0  0  0
    0.1265    1.7238   -2.8774 C   0  0  0  0  0  0  0  0  0  0  0  0
   -0.4851    2.9385   -3.0689 C   0  0  0  0  0  0  0  0  0  0  0  0
    0.0205    4.0313   -2.3870 C   0  0  0  0  0  0  0  0  0  0  0  0
    1.0953    3.9025   -1.4687 C   0  0  0  0  0  0  0  0  0  0  0  0
    1.6805    5.4535   -0.8536 S   0  0  0  0  0  0  0  0  0  0  0  0
    2.9175    4.9499    0.3013 C   0  0  0  0  0  0  0  0  0  0  0  0
    3.5414    6.0311    0.9664 C   0  0  0  0  0  0  0  0  0  0  0  0
    4.4533    5.8241    1.9886 C   0  0  0  0  0  0  0  0  0  0  0  0
    4.7296    4.5277    2.3707 C   0  0  0  0  0  0  0  0  0  0  0  0
    4.1307    3.4498    1.6968 C   0  0  0  0  0  0  0  0  0  0  0  0
    3.2277    3.6084    0.6101 C   0  0  0  0  0  0  0  0  0  0  0  0
    1.5944   -0.8843   -0.4558 N   0  0  0  0  0  0  0  0  0  0  0  0
    1.7184   -2.2248   -1.0204 C   0  0  0  0  0  0  0  0  0  0  0  0
    0.5936   -0.8565    0.6083 C   0  0  0  0  0  0  0  0  0  0  0  0
    4.8373    0.3245   -0.9183 H   0  0  0  0  0  0  0  0  0  0  0  0
    3.6128    0.1083   -2.1615 H   0  0  0  0  0  0  0  0  0  0  0  0
    4.3278   -1.2957   -1.3696 H   0  0  0  0  0  0  0  0  0  0  0  0
    3.2962   -0.8943    0.7005 H   0  0  0  0  0  0  0  0  0  0  0  0
    3.8518    1.1626    0.9893 H   0  0  0  0  0  0  0  0  0  0  0  0
    2.1711    1.1706    1.4368 H   0  0  0  0  0  0  0  0  0  0  0  0
    1.6587    0.6560   -1.9864 H   0  0  0  0  0  0  0  0  0  0  0  0
   -0.1879    0.8462   -3.4344 H   0  0  0  0  0  0  0  0  0  0  0  0
   -1.3060    3.0440   -3.7704 H   0  0  0  0  0  0  0  0  0  0  0  0
   -0.4144    5.0080   -2.5865 H   0  0  0  0  0  0  0  0  0  0  0  0
    3.3009    7.0562    0.6883 H   0  0  0  0  0  0  0  0  0  0  0  0
    4.9223    6.6657    2.4892 H   0  0  0  0  0  0  0  0  0  0  0  0
    5.4180    4.3387    3.1911 H   0  0  0  0  0  0  0  0  0  0  0  0
    4.4251    2.4873    2.0953 H   0  0  0  0  0  0  0  0  0  0  0  0
    2.3317   -2.2189   -1.9262 H   0  0  0  0  0  0  0  0  0  0  0  0
    0.7389   -2.5976   -1.3337 H   0  0  0  0  0  0  0  0  0  0  0  0
    2.1490   -2.9330   -0.3038 H   0  0  0  0  0  0  0  0  0  0  0  0
    0.3481    0.1685    0.9026 H   0  0  0  0  0  0  0  0  0  0  0  0
    0.9181   -1.4121    1.4936 H   0  0  0  0  0  0  0  0  0  0  0  0
   -0.3524   -1.2868    0.2578 H   0  0  0  0  0  0  0  0  0  0  0  0
  1  2  1  0  0  0  0
  1 21  1  0  0  0  0
  1 22  1  0  0  0  0
  1 23  1  0  0  0  0
  2  3  1  0  0  0  0
  2 18  1  0  0  0  0
  2 24  1  0  0  0  0
  3  4  1  0  0  0  0
  3 25  1  0  0  0  0
  3 26  1  0  0  0  0
  4  5  1  0  0  0  0
  4 17  1  0  0  0  0
  5  6  2  0  0  0  0
  5 10  1  0  0  0  0
  6  7  1  0  0  0  0
  6 27  1  0  0  0  0
  7  8  2  0  0  0  0
  7 28  1  0  0  0  0
  8  9  1  0  0  0  0
  8 29  1  0  0  0  0
  9 10  2  0  0  0  0
  9 30  1  0  0  0  0
 10 11  1  0  0  0  0
 11 12  1  0  0  0  0
 12 13  2  0  0  0  0
 12 17  1  0  0  0  0
 13 14  1  0  0  0  0
 13 31  1  0  0  0  0
 14 15  2  0  0  0  0
 14 32  1  0  0  0  0
 15 16  1  0  0  0  0
 15 33  1  0  0  0  0
 16 17  2  0  0  0  0
 16 34  1  0  0  0  0
 18 19  1  0  0  0  0
 18 20  1  0  0  0  0
 19 35  1  0  0  0  0
 19 36  1  0  0  0  0
 19 37  1  0  0  0  0
 20 38  1  0  0  0  0
 20 39  1  0  0  0  0
 20 40  1  0  0  0  0
M  END
$$$$

 OpenBabel12201709243D

 18 18  0  0  1  0  0  0  0  0999 V2000
    1.0000    0.0166    0.0932 Cl  0  0  0  0  0  0  0  0  0  0  0  0
    2.8076   -0.0806    0.0151 C   0  0  3  0  0  0  0  0  0  0  0  0
    3.2862   -1.5034   -0.3590 C   0  0  3  0  0  0  0  0  0  0  0  0
    2.6786   -2.6914    0.8532 Cl  0  0  0  0  0  0  0  0  0  0  0  0
    2.8726   -1.8802   -1.7973 C   0  0  3  0  0  0  0  0  0  0  0  0
    3.3584   -3.5567   -2.2384 Cl  0  0  0  0  0  0  0  0  0  0  0  0
    3.4042   -0.8623   -2.8332 C   0  0  3  0  0  0  0  0  0  0  0  0
    5.1851   -1.0058   -3.0539 Cl  0  0  0  0  0  0  0  0  0  0  0  0
    2.9708    0.5674   -2.4413 C   0  0  3  0  0  0  0  0  0  0  0  0
    3.5085    1.7995   -3.6299 Cl  0  0  0  0  0  0  0  0  0  0  0  0
    3.2978    0.9786   -0.9870 C   0  0  3  0  0  0  0  0  0  0  0  0
    5.0403    1.2981   -0.6918 Cl  0  0  0  0  0  0  0  0  0  0  0  0
    3.1458    0.1723    1.0267 H   0  0  0  0  0  0  0  0  0  0  0  0
    4.3763   -1.5518   -0.2653 H   0  0  0  0  0  0  0  0  0  0  0  0
    1.7791   -1.8945   -1.8681 H   0  0  0  0  0  0  0  0  0  0  0  0
    2.9776   -1.1030   -3.8144 H   0  0  0  0  0  0  0  0  0  0  0  0
    1.8793    0.5925   -2.5435 H   0  0  0  0  0  0  0  0  0  0  0  0
    2.8101    1.9371   -0.7721 H   0  0  0  0  0  0  0  0  0  0  0  0
  1  2  1  0  0  0  0
  2  3  1  0  0  0  0
  2 11  1  0  0  0  0
  2 13  1  0  0  0  0
  3  4  1  0  0  0  0
  3  5  1  0  0  0  0
  3 14  1  0  0  0  0
  5  6  1  0  0  0  0
  5  7  1  0  0  0  0
  5 15  1  0  0  0  0
  7  8  1  0  0  0  0
  7  9  1  0  0  0  0
  7 16  1  0  0  0  0
  9 10  1  0  0  0  0
  9 11  1  0  0  0  0
  9 17  1  0  0  0  0
 11 12  1  0  0  0  0
 11 18  1  0  0  0  0
M  END
$$$$

 OpenBabel12201709243D

 25 26  0  0  0  0  0  0  0  0999 V2000
    1.2656   -0.6041    0.2840 N   0  0  0  0  0  0  0  0  0  0  0  0
    2.8673   -0.1299    0.1127 S   0  0  0  0  0  0  0  0  0  0  0  0
    2.8134    1.3081   -0.0224 O   0  0  0  0  0  0  0  0  0  0  0  0
    3.6193   -0.7701    1.1635 O   0  0  0  0  0  0  0  0  0  0  0  0
    3.3210   -0.8305   -1.4405 C   0  0  0  0  0  0  0  0  0  0  0  0
    3.7468    0.0202   -2.4672 C   0  0  0  0  0  0  0  0  0  0  0  0
    4.1093   -0.5299   -3.7031 C   0  0  0  0  0  0  0  0  0  0  0  0
    4.0628   -1.9030   -3.9517 C   0  0  0  0  0  0  0  0  0  0  0  0
    4.5101   -2.4842   -5.1385 N   0  0  0  0  0  0  0  0  0  0  0  0
    4.5485   -1.6681   -6.3261 C   0  0  0  0  0  0  0  0  0  0  0  0
    5.3682   -0.5021   -6.0838 N   0  0  0  0  0  0  0  0  0  0  0  0
    4.6425    0.5414   -4.9880 S   0  0  0  0  0  0  0  0  0  0  0  0
    5.6733    1.4144   -4.4750 O   0  0  0  0  0  0  0  0  0  0  0  0
    3.4591    1.0620   -5.6364 O   0  0  0  0  0  0  0  0  0  0  0  0
    3.6783   -2.7337   -2.8915 C   0  0  0  0  0  0  0  0  0  0  0  0
    3.2891   -2.2110   -1.6484 C   0  0  0  0  0  0  0  0  0  0  0  0
    2.7801   -3.3594   -0.4611 Cl  0  0  0  0  0  0  0  0  0  0  0  0
    0.6812    0.2121    0.4698 H   0  0  0  0  0  0  0  0  0  0  0  0
    1.1902   -1.3378    0.9904 H   0  0  0  0  0  0  0  0  0  0  0  0
    3.8034    1.0980   -2.3174 H   0  0  0  0  0  0  0  0  0  0  0  0
    4.1446   -3.4175   -5.3054 H   0  0  0  0  0  0  0  0  0  0  0  0
    3.5414   -1.4051   -6.6707 H   0  0  0  0  0  0  0  0  0  0  0  0
    5.0067   -2.2480   -7.1349 H   0  0  0  0  0  0  0  0  0  0  0  0
    5.5555    0.0104   -6.9431 H   0  0  0  0  0  0  0  0  0  0  0  0
    3.6767   -3.8132   -3.0327 H   0  0  0  0  0  0  0  0  0  0  0  0
  1  2  1  0  0  0  0
  1 18  1  0  0  0  0
  1 19  1  0  0  0  0
  2  3  2  0  0  0  0
  2  4  2  0  0  0  0
  2  5  1  0  0  0  0
  5  6  2  0  0  0  0
  5 16  1  0  0  0  0
  6  7  1  0  0  0  0
  6 20  1  0  0  0  0
  7  8  2  0  0  0  0
  7 12  1  0  0  0  0
  8  9  1  0  0  0  0
  8 15  1  0  0  0  0
  9 10  1  0  0  0  0
  9 21  1  0  0  0  0
 10 11  1  0  0  0  0
 10 22  1  0  0  0  0
 10 23  1  0  0  0  0
 11 12  1  0  0  0  0
 11 24  1  0  0  0  0
 12 13  2  0  0  0  0
 12 14  2  0  0  0  0
 15 16  2  0  0  0  0
 15 25  1  0  0  0  0
 16 17  1  0  0  0  0
M  END
$$$$

 OpenBabel12201709243D

 86 87  0  0  1  0  0  0  0  0999 V2000
   11.4440    1.6797    6.8422 C   0  0  0  0  0  0  0  0  0  0  0  0
   10.9710    1.2374    5.4586 C   0  0  0  0  0  0  0  0  0  0  0  0
    9.4844    0.8706    5.5132 C   0  0  0  0  0  0  0  0  0  0  0  0
   11.2778    2.3400    4.4263 C   0  0  0  0  0  0  0  0  0  0  0  0
   10.8351    1.9442    3.0215 C   0  0  0  0  0  0  0  0  0  0  0  0
   11.1291    3.0201    1.9781 C   0  0  0  0  0  0  0  0  0  0  0  0
   10.6590    2.5936    0.5726 C   0  0  3  0  0  0  0  0  0  0  0  0
    9.1472    2.3168    0.5323 C   0  0  0  0  0  0  0  0  0  0  0  0
   11.0665    3.6671   -0.4544 C   0  0  0  0  0  0  0  0  0  0  0  0
   10.6194    3.2994   -1.8680 C   0  0  0  0  0  0  0  0  0  0  0  0
   11.0210    4.3413   -2.9035 C   0  0  0  0  0  0  0  0  0  0  0  0
   10.5676    3.9440   -4.3246 C   0  0  3  0  0  0  0  0  0  0  0  0
    9.0453    3.8255   -4.4456 C   0  0  0  0  0  0  0  0  0  0  0  0
   11.0951    4.9361   -5.3811 C   0  0  0  0  0  0  0  0  0  0  0  0
   12.6213    5.0711   -5.4310 C   0  0  0  0  0  0  0  0  0  0  0  0
   13.3186    3.7308   -5.6938 C   0  0  0  0  0  0  0  0  0  0  0  0
   14.8594    3.7407   -5.5743 C   0  0  3  0  0  0  0  0  0  0  0  0
   15.3345    2.3164   -5.9451 C   0  0  0  0  0  0  0  0  0  0  0  0
   15.2748    4.1501   -4.1595 C   0  0  0  0  0  0  0  0  0  0  0  0
   16.7745    4.1163   -4.0208 C   0  0  0  0  0  0  0  0  0  0  0  0
   17.4521    4.7344   -5.2167 C   0  0  0  0  0  0  0  0  0  0  0  0
   18.8445    4.9697   -5.1964 C   0  0  0  0  0  0  0  0  0  0  0  0
   19.6580    4.5450   -3.9998 C   0  0  0  0  0  0  0  0  0  0  0  0
   19.4313    5.6147   -6.3020 C   0  0  0  0  0  0  0  0  0  0  0  0
   20.8450    5.7936   -6.4090 O   0  0  0  0  0  0  0  0  0  0  0  0
   21.6764    6.4126   -5.4730 C   0  0  0  0  0  0  0  0  0  0  0  0
   21.3611    6.8517   -4.3782 O   0  0  0  0  0  0  0  0  0  0  0  0
   23.0832    6.4313   -6.0066 C   0  0  0  0  0  0  0  0  0  0  0  0
   18.6794    5.9673   -7.4499 C   0  0  0  0  0  0  0  0  0  0  0  0
   19.3317    6.6278   -8.6360 C   0  0  0  0  0  0  0  0  0  0  0  0
   17.2993    5.6593   -7.4869 C   0  0  0  0  0  0  0  0  0  0  0  0
   16.4250    5.9709   -8.6812 C   0  0  0  0  0  0  0  0  0  0  0  0
   16.7083    5.0239   -6.3770 C   0  0  0  0  0  0  0  0  0  0  0  0
   15.3774    4.6893   -6.5160 O   0  0  0  0  0  0  0  0  0  0  0  0
   11.2713    0.8901    7.5806 H   0  0  0  0  0  0  0  0  0  0  0  0
   10.9107    2.5770    7.1732 H   0  0  0  0  0  0  0  0  0  0  0  0
   12.5158    1.9029    6.8353 H   0  0  0  0  0  0  0  0  0  0  0  0
   11.5313    0.3359    5.1802 H   0  0  0  0  0  0  0  0  0  0  0  0
    8.8625    1.7566    5.6751 H   0  0  0  0  0  0  0  0  0  0  0  0
    9.2875    0.1633    6.3262 H   0  0  0  0  0  0  0  0  0  0  0  0
    9.1549    0.3867    4.5881 H   0  0  0  0  0  0  0  0  0  0  0  0
   12.3557    2.5454    4.4216 H   0  0  0  0  0  0  0  0  0  0  0  0
   10.7774    3.2725    4.7167 H   0  0  0  0  0  0  0  0  0  0  0  0
    9.7590    1.7666    3.0475 H   0  0  0  0  0  0  0  0  0  0  0  0
   11.3197    1.0052    2.7294 H   0  0  0  0  0  0  0  0  0  0  0  0
   12.2085    3.2184    1.9581 H   0  0  0  0  0  0  0  0  0  0  0  0
   10.6376    3.9583    2.2656 H   0  0  0  0  0  0  0  0  0  0  0  0
   11.1766    1.6624    0.3080 H   0  0  0  0  0  0  0  0  0  0  0  0
    8.5764    3.2235    0.7562 H   0  0  0  0  0  0  0  0  0  0  0  0
    8.8504    1.5397    1.2391 H   0  0  0  0  0  0  0  0  0  0  0  0
    8.8290    1.9391   -0.4427 H   0  0  0  0  0  0  0  0  0  0  0  0
   12.1570    3.7955   -0.4371 H   0  0  0  0  0  0  0  0  0  0  0  0
   10.6308    4.6368   -0.1747 H   0  0  0  0  0  0  0  0  0  0  0  0
    9.5326    3.2115   -1.8846 H   0  0  0  0  0  0  0  0  0  0  0  0
   11.0412    2.3246   -2.1405 H   0  0  0  0  0  0  0  0  0  0  0  0
   12.1109    4.4429   -2.8627 H   0  0  0  0  0  0  0  0  0  0  0  0
   10.5968    5.3170   -2.6361 H   0  0  0  0  0  0  0  0  0  0  0  0
   10.9584    2.9447   -4.5437 H   0  0  0  0  0  0  0  0  0  0  0  0
    8.5461    4.7606   -4.1655 H   0  0  0  0  0  0  0  0  0  0  0  0
    8.6510    3.0250   -3.8167 H   0  0  0  0  0  0  0  0  0  0  0  0
    8.7579    3.5782   -5.4755 H   0  0  0  0  0  0  0  0  0  0  0  0
   10.6660    5.9287   -5.1902 H   0  0  0  0  0  0  0  0  0  0  0  0
   10.7406    4.6298   -6.3743 H   0  0  0  0  0  0  0  0  0  0  0  0
   12.9627    5.5256   -4.4983 H   0  0  0  0  0  0  0  0  0  0  0  0
   12.8879    5.7799   -6.2236 H   0  0  0  0  0  0  0  0  0  0  0  0
   13.0313    3.4083   -6.7041 H   0  0  0  0  0  0  0  0  0  0  0  0
   12.9500    2.9677   -5.0014 H   0  0  0  0  0  0  0  0  0  0  0  0
   15.0125    1.5851   -5.1970 H   0  0  0  0  0  0  0  0  0  0  0  0
   16.4216    2.2441   -6.0474 H   0  0  0  0  0  0  0  0  0  0  0  0
   14.9282    2.0131   -6.9179 H   0  0  0  0  0  0  0  0  0  0  0  0
   14.8115    3.5099   -3.4021 H   0  0  0  0  0  0  0  0  0  0  0  0
   14.9512    5.1808   -3.9530 H   0  0  0  0  0  0  0  0  0  0  0  0
   17.1053    3.0774   -3.9119 H   0  0  0  0  0  0  0  0  0  0  0  0
   17.0473    4.6605   -3.1097 H   0  0  0  0  0  0  0  0  0  0  0  0
   19.1818    3.7400   -3.4336 H   0  0  0  0  0  0  0  0  0  0  0  0
   19.7908    5.3837   -3.3105 H   0  0  0  0  0  0  0  0  0  0  0  0
   20.6263    4.1413   -4.3086 H   0  0  0  0  0  0  0  0  0  0  0  0
   23.0758    6.4026   -7.1004 H   0  0  0  0  0  0  0  0  0  0  0  0
   23.6488    5.5822   -5.6193 H   0  0  0  0  0  0  0  0  0  0  0  0
   23.5638    7.3695   -5.7077 H   0  0  0  0  0  0  0  0  0  0  0  0
   20.3997    6.8231   -8.4880 H   0  0  0  0  0  0  0  0  0  0  0  0
   18.8626    7.5969   -8.8363 H   0  0  0  0  0  0  0  0  0  0  0  0
   19.2457    5.9895   -9.5223 H   0  0  0  0  0  0  0  0  0  0  0  0
   16.9611    6.4520   -9.5029 H   0  0  0  0  0  0  0  0  0  0  0  0
   15.6168    6.6494   -8.3860 H   0  0  0  0  0  0  0  0  0  0  0  0
   15.9906    5.0484   -9.0824 H   0  0  0  0  0  0  0  0  0  0  0  0
  1  2  1  0  0  0  0
  1 35  1  0  0  0  0
  1 36  1  0  0  0  0
  1 37  1  0  0  0  0
  2  3  1  0  0  0  0
  2  4  1  0  0  0  0
  2 38  1  0  0  0  0
  3 39  1  0  0  0  0
  3 40  1  0  0  0  0
  3 41  1  0  0  0  0
  4  5  1  0  0  0  0
  4 42  1  0  0  0  0
  4 43  1  0  0  0  0
  5  6  1  0  0  0  0
  5 44  1  0  0  0  0
  5 45  1  0  0  0  0
  6  7  1  0  0  0  0
  6 46  1  0  0  0  0
  6 47  1  0  0  0  0
  7  8  1  0  0  0  0
  7  9  1  0  0  0  0
  7 48  1  0  0  0  0
  8 49  1  0  0  0  0
  8 50  1  0  0  0  0
  8 51  1  0  0  0  0
  9 10  1  0  0  0  0
  9 52  1  0  0  0  0
  9 53  1  0  0  0  0
 10 11  1  0  0  0  0
 10 54  1  0  0  0  0
 10 55  1  0  0  0  0
 11 12  1  0  0  0  0
 11 56  1  0  0  0  0
 11 57  1  0  0  0  0
 12 13  1  0  0  0  0
 12 14  1  0  0  0  0
 12 58  1  0  0  0  0
 13 59  1  0  0  0  0
 13 60  1  0  0  0  0
 13 61  1  0  0  0  0
 14 15  1  0  0  0  0
 14 62  1  0  0  0  0
 14 63  1  0  0  0  0
 15 16  1  0  0  0  0
 15 64  1  0  0  0  0
 15 65  1  0  0  0  0
 16 17  1  0  0  0  0
 16 66  1  0  0  0  0
 16 67  1  0  0  0  0
 17 18  1  0  0  0  0
 17 19  1  0  0  0  0
 17 34  1  0  0  0  0
 18 68  1  0  0  0  0
 18 69  1  0  0  0  0
 18 70  1  0  0  0  0
 19 20  1  0  0  0  0
 19 71  1  0  0  0  0
 19 72  1  0  0  0  0
 20 21  1  0  0  0  0
 20 73  1  0  0  0  0
 20 74  1  0  0  0  0
 21 22  2  0  0  0  0
 21 33  1  0  0  0  0
 22 23  1  0  0  0  0
 22 24  1  0  0  0  0
 23 75  1  0  0  0  0
 23 76  1  0  0  0  0
 23 77  1  0  0  0  0
 24 25  1  0  0  0  0
 24 29  2  0  0  0  0
 25 26  1  0  0  0  0
 26 27  2  0  0  0  0
 26 28  1  0  0  0  0
 28 78  1  0  0  0  0
 28 79  1  0  0  0  0
 28 80  1  0  0  0  0
 29 30  1  0  0  0  0
 29 31  1  0  0  0  0
 30 81  1  0  0  0  0
 30 82  1  0  0  0  0
 30 83  1  0  0  0  0
 31 32  1  0  0  0  0
 31 33  2  0  0  0  0
 32 84  1  0  0  0  0
 32 85  1  0  0  0  0
 32 86  1  0  0  0  0
 33 34  1  0  0  0  0
M  END
$$$$

 OpenBabel12201709243D

 39 41  0  0  0  0  0  0  0  0999 V2000
    0.6512   -1.5577   -1.6259 O   0  0  0  0  0  0  0  0  0  0  0  0
    1.9859   -1.2190   -1.9946 C   0  0  0  0  0  0  0  0  0  0  0  0
    2.9220   -1.2928   -0.7775 C   0  0  0  0  0  0  0  0  0  0  0  0
    4.3067   -0.9462   -1.1555 N   0  0  0  0  0  0  0  0  0  0  0  0
    5.1338   -0.3011   -0.1112 C   0  0  0  0  0  0  0  0  0  0  0  0
    5.3649   -1.1368    1.1566 C   0  0  0  0  0  0  0  0  0  0  0  0
    6.0742   -2.3428    0.9014 O   0  0  0  0  0  0  0  0  0  0  0  0
    4.9758   -1.9414   -1.8952 C   0  0  0  0  0  0  0  0  0  0  0  0
    4.6414   -3.2228   -1.6503 N   0  0  0  0  0  0  0  0  0  0  0  0
    5.2436   -4.1681   -2.3861 C   0  0  0  0  0  0  0  0  0  0  0  0
    6.1714   -3.9491   -3.3283 N   0  0  0  0  0  0  0  0  0  0  0  0
    6.4950   -2.6780   -3.5703 C   0  0  0  0  0  0  0  0  0  0  0  0
    7.4274   -2.4192   -4.5663 C   0  0  0  0  0  0  0  0  0  0  0  0
    7.8020   -1.1186   -4.9088 C   0  0  0  0  0  0  0  0  0  0  0  0
    7.2314   -0.0427   -4.2470 C   0  0  0  0  0  0  0  0  0  0  0  0
    6.2910   -0.2781   -3.2472 C   0  0  0  0  0  0  0  0  0  0  0  0
    5.9229   -1.5994   -2.8830 C   0  0  0  0  0  0  0  0  0  0  0  0
    4.8326   -5.5652   -2.2050 C   0  0  0  0  0  0  0  0  0  0  0  0
    5.3424   -6.6974   -2.8231 C   0  0  0  0  0  0  0  0  0  0  0  0
    4.6692   -7.8943   -2.4443 C   0  0  0  0  0  0  0  0  0  0  0  0
    3.6649   -7.6492   -1.5373 C   0  0  0  0  0  0  0  0  0  0  0  0
    3.5473   -5.9902   -1.1433 S   0  0  0  0  0  0  0  0  0  0  0  0
    0.1386   -1.5976   -2.4520 H   0  0  0  0  0  0  0  0  0  0  0  0
    1.9776   -0.2017   -2.4011 H   0  0  0  0  0  0  0  0  0  0  0  0
    2.3060   -1.9005   -2.7894 H   0  0  0  0  0  0  0  0  0  0  0  0
    2.8469   -2.2733   -0.2888 H   0  0  0  0  0  0  0  0  0  0  0  0
    2.5506   -0.5779   -0.0322 H   0  0  0  0  0  0  0  0  0  0  0  0
    4.6349    0.6323    0.1789 H   0  0  0  0  0  0  0  0  0  0  0  0
    6.1071   -0.0076   -0.5190 H   0  0  0  0  0  0  0  0  0  0  0  0
    4.4254   -1.3841    1.6589 H   0  0  0  0  0  0  0  0  0  0  0  0
    5.9710   -0.5505    1.8561 H   0  0  0  0  0  0  0  0  0  0  0  0
    5.4919   -2.8870    0.3334 H   0  0  0  0  0  0  0  0  0  0  0  0
    7.8666   -3.2572   -5.1027 H   0  0  0  0  0  0  0  0  0  0  0  0
    8.5278   -0.9553   -5.7009 H   0  0  0  0  0  0  0  0  0  0  0  0
    7.5043    0.9750   -4.5127 H   0  0  0  0  0  0  0  0  0  0  0  0
    5.8319    0.5730   -2.7510 H   0  0  0  0  0  0  0  0  0  0  0  0
    6.1619   -6.6582   -3.5319 H   0  0  0  0  0  0  0  0  0  0  0  0
    4.9075   -8.8808   -2.8226 H   0  0  0  0  0  0  0  0  0  0  0  0
    2.9920   -8.3647   -1.0846 H   0  0  0  0  0  0  0  0  0  0  0  0
  1  2  1  0  0  0  0
  1 23  1  0  0  0  0
  2  3  1  0  0  0  0
  2 24  1  0  0  0  0
  2 25  1  0  0  0  0
  3  4  1  0  0  0  0
  3 26  1  0  0  0  0
  3 27  1  0  0  0  0
  4  5  1  0  0  0  0
  4  8  1  0  0  0  0
  5  6  1  0  0  0  0
  5 28  1  0  0  0  0
  5 29  1  0  0  0  0
  6  7  1  0  0  0  0
  6 30  1  0  0  0  0
  6 31  1  0  0  0  0
  7 32  1  0  0  0  0
  8  9  2  0  0  0  0
  8 17  1  0  0  0  0
  9 10  1  0  0  0  0
 10 11  2  0  0  0  0
 10 18  1  0  0  0  0
 11 12  1  0  0  0  0
 12 13  2  0  0  0  0
 12 17  1  0  0  0  0
 13 14  1  0  0  0  0
 13 33  1  0  0  0  0
 14 15  2  0  0  0  0
 14 34  1  0  0  0  0
 15 16  1  0  0  0  0
 15 35  1  0  0  0  0
 16 17  2  0  0  0  0
 16 36  1  0  0  0  0
 18 19  2  0  0  0  0
 18 22  1  0  0  0  0
 19 20  1  0  0  0  0
 19 37  1  0  0  0  0
 20 21  2  0  0  0  0
 20 38  1  0  0  0  0
 21 22  1  0  0  0  0
 21 39  1  0  0  0  0
M  END
$$$$

 OpenBabel12201709243D

 39 42  0  0  0  0  0  0  0  0999 V2000
    0.9195    0.1532   -0.4130 O   0  0  0  0  0  0  0  0  0  0  0  0
    2.0762    0.4421    0.2705 N   0  0  0  0  0  0  0  0  0  0  0  0
    2.5416    1.5539    0.1746 O   0  0  0  0  0  0  0  0  0  0  0  0
    2.7046   -0.5315    1.0725 C   0  0  0  0  0  0  0  0  0  0  0  0
    3.8627   -0.3336    1.7995 C   0  0  0  0  0  0  0  0  0  0  0  0
    4.2454   -1.5015    2.5285 C   0  0  0  0  0  0  0  0  0  0  0  0
    3.3751   -2.5619    2.3379 C   0  0  0  0  0  0  0  0  0  0  0  0
    2.1095   -2.1145    1.2636 S   0  0  0  0  0  0  0  0  0  0  0  0
    3.4299   -3.9229    2.8806 C   0  0  0  0  0  0  0  0  0  0  0  0
    2.4757   -4.7719    2.4865 N   0  0  0  0  0  0  0  0  0  0  0  0
    2.5835   -6.0620    2.8360 C   0  0  0  0  0  0  0  0  0  0  0  0
    1.6756   -6.9176    2.2465 N   0  0  0  0  0  0  0  0  0  0  0  0
    0.9964   -6.4707    1.0167 C   0  0  0  0  0  0  0  0  0  0  0  0
    0.7925   -7.7152    0.1347 C   0  0  0  0  0  0  0  0  0  0  0  0
    0.0650   -8.7532    0.8228 O   0  0  0  0  0  0  0  0  0  0  0  0
    0.7117   -9.1101    2.0611 C   0  0  0  0  0  0  0  0  0  0  0  0
    0.8591   -7.8843    2.9837 C   0  0  0  0  0  0  0  0  0  0  0  0
    3.6741   -6.5103    3.6142 C   0  0  0  0  0  0  0  0  0  0  0  0
    3.9581   -7.8579    3.9698 C   0  0  0  0  0  0  0  0  0  0  0  0
    5.0930   -8.2000    4.7022 C   0  0  0  0  0  0  0  0  0  0  0  0
    5.9841   -7.2073    5.0729 C   0  0  0  0  0  0  0  0  0  0  0  0
    5.7288   -5.8835    4.7101 C   0  0  0  0  0  0  0  0  0  0  0  0
    4.5991   -5.5177    3.9881 C   0  0  0  0  0  0  0  0  0  0  0  0
    4.4854   -4.2357    3.6366 N   0  0  0  0  0  0  0  0  0  0  0  0
    0.7871    1.0220   -0.8158 H   0  0  0  0  0  0  0  0  0  0  0  0
    4.4090    0.6025    1.8106 H   0  0  0  0  0  0  0  0  0  0  0  0
    5.1225   -1.5652    3.1615 H   0  0  0  0  0  0  0  0  0  0  0  0
    1.5778   -5.7369    0.4470 H   0  0  0  0  0  0  0  0  0  0  0  0
    0.0264   -6.0225    1.2699 H   0  0  0  0  0  0  0  0  0  0  0  0
    1.7630   -8.1172   -0.1830 H   0  0  0  0  0  0  0  0  0  0  0  0
    0.2293   -7.4490   -0.7647 H   0  0  0  0  0  0  0  0  0  0  0  0
    1.6939   -9.5439    1.8320 H   0  0  0  0  0  0  0  0  0  0  0  0
    0.1063   -9.8832    2.5430 H   0  0  0  0  0  0  0  0  0  0  0  0
    1.2724   -8.1700    3.9538 H   0  0  0  0  0  0  0  0  0  0  0  0
   -0.1328   -7.4541    3.1768 H   0  0  0  0  0  0  0  0  0  0  0  0
    3.3090   -8.6646    3.6480 H   0  0  0  0  0  0  0  0  0  0  0  0
    5.2860   -9.2380    4.9603 H   0  0  0  0  0  0  0  0  0  0  0  0
    6.8879   -7.4571    5.6220 H   0  0  0  0  0  0  0  0  0  0  0  0
    6.4514   -5.1154    4.9785 H   0  0  0  0  0  0  0  0  0  0  0  0
  1  2  1  0  0  0  0
  1 25  1  0  0  0  0
  2  3  2  0  0  0  0
  2  4  1  0  0  0  0
  4  5  2  0  0  0  0
  4  8  1  0  0  0  0
  5  6  1  0  0  0  0
  5 26  1  0  0  0  0
  6  7  2  0  0  0  0
  6 27  1  0  0  0  0
  7  8  1  0  0  0  0
  7  9  1  0  0  0  0
  9 10  2  0  0  0  0
  9 24  1  0  0  0  0
 10 11  1  0  0  0  0
 11 12  1  0  0  0  0
 11 18  2  0  0  0  0
 12 13  1  0  0  0  0
 12 17  1  0  0  0  0
 13 14  1  0  0  0  0
 13 28  1  0  0  0  0
 13 29  1  0  0  0  0
 14 15  1  0  0  0  0
 14 30  1  0  0  0  0
 14 31  1  0  0  0  0
 15 16  1  0  0  0  0
 16 17  1  0  0  0  0
 16 32  1  0  0  0  0
 16 33  1  0  0  0  0
 17 34  1  0  0  0  0
 17 35  1  0  0  0  0
 18 19  1  0  0  0  0
 18 23  1  0  0  0  0
 19 20  2  0  0  0  0
 19 36  1  0  0  0  0
 20 21  1  0  0  0  0
 20 37  1  0  0  0  0
 21 22  2  0  0  0  0
 21 38  1  0  0  0  0
 22 23  1  0  0  0  0
 22 39  1  0  0  0  0
 23 24  2  0  0  0  0
M  END
$$$$

 OpenBabel12201709243D

 55 57  0  0  1  0  0  0  0  0999 V2000
    2.7110    1.4475    0.2952 C   0  0  0  0  0  0  0  0  0  0  0  0
    2.3209    0.0402    0.1987 N   0  0  0  0  0  0  0  0  0  0  0  0
    0.8839   -0.2048   -0.0310 C   0  0  0  0  0  0  0  0  0  0  0  0
    0.5754   -0.9095   -1.3346 C   0  0  0  0  0  0  0  0  0  0  0  0
    1.3414   -0.7434   -2.4737 C   0  0  0  0  0  0  0  0  0  0  0  0
    1.0134   -1.2879   -3.6729 N   0  0  0  0  0  0  0  0  0  0  0  0
   -0.1084   -2.0171   -3.7520 C   0  0  0  0  0  0  0  0  0  0  0  0
   -0.4513   -2.5050   -4.9417 N   0  0  0  0  0  0  0  0  0  0  0  0
   -1.5846   -3.1907   -5.0261 C   0  0  0  0  0  0  0  0  0  0  0  0
   -1.9566   -3.6647   -6.2649 N   0  0  0  0  0  0  0  0  0  0  0  0
   -2.3790   -3.4738   -3.9981 N   0  0  0  0  0  0  0  0  0  0  0  0
   -2.0150   -2.9780   -2.8083 C   0  0  0  0  0  0  0  0  0  0  0  0
   -2.8331   -3.3411   -1.7228 N   0  0  0  0  0  0  0  0  0  0  0  0
   -0.8746   -2.2092   -2.5980 C   0  0  0  0  0  0  0  0  0  0  0  0
   -0.5526   -1.6584   -1.3872 N   0  0  0  0  0  0  0  0  0  0  0  0
    3.0619   -0.9180    0.9003 C   0  0  0  0  0  0  0  0  0  0  0  0
    4.1990   -0.5772    1.6558 C   0  0  0  0  0  0  0  0  0  0  0  0
    4.9671   -1.5413    2.3245 C   0  0  0  0  0  0  0  0  0  0  0  0
    4.6365   -2.8862    2.2360 C   0  0  0  0  0  0  0  0  0  0  0  0
    3.5063   -3.2629    1.5126 C   0  0  0  0  0  0  0  0  0  0  0  0
    2.7445   -2.2865    0.8516 C   0  0  0  0  0  0  0  0  0  0  0  0
    5.5174   -3.8719    2.9251 C   0  0  0  0  0  0  0  0  0  0  0  0
    6.2522   -3.5120    3.8383 O   0  0  0  0  0  0  0  0  0  0  0  0
    5.4836   -5.1652    2.4618 N   0  0  0  0  0  0  0  0  0  0  0  0
    6.3682   -6.1991    2.9966 C   0  0  3  0  0  0  0  0  0  0  0  0
    5.9917   -6.5491    4.4480 C   0  0  0  0  0  0  0  0  0  0  0  0
    6.8389   -7.6484    5.0763 C   0  0  0  0  0  0  0  0  0  0  0  0
    8.2901   -7.2620    5.0665 C   0  0  0  0  0  0  0  0  0  0  0  0
    8.9993   -7.4090    4.0769 O   0  0  0  0  0  0  0  0  0  0  0  0
    8.7083   -6.6584    6.1944 O   0  0  0  0  0  0  0  0  0  0  0  0
    6.2226   -7.4207    2.0833 C   0  0  0  0  0  0  0  0  0  0  0  0
    5.1384   -7.8785    1.7408 O   0  0  0  0  0  0  0  0  0  0  0  0
    7.3919   -7.9414    1.6530 O   0  0  0  0  0  0  0  0  0  0  0  0
    2.0960    2.0724   -0.3627 H   0  0  0  0  0  0  0  0  0  0  0  0
    3.7467    1.5918   -0.0322 H   0  0  0  0  0  0  0  0  0  0  0  0
    2.5921    1.8205    1.3186 H   0  0  0  0  0  0  0  0  0  0  0  0
    0.3396    0.7487   -0.0609 H   0  0  0  0  0  0  0  0  0  0  0  0
    0.4448   -0.7591    0.8093 H   0  0  0  0  0  0  0  0  0  0  0  0
    2.2524   -0.1529   -2.4685 H   0  0  0  0  0  0  0  0  0  0  0  0
   -1.1489   -3.7643   -6.8646 H   0  0  0  0  0  0  0  0  0  0  0  0
   -2.5684   -4.4627   -6.1719 H   0  0  0  0  0  0  0  0  0  0  0  0
   -3.6874   -3.7618   -2.0714 H   0  0  0  0  0  0  0  0  0  0  0  0
   -2.9701   -2.5628   -1.0841 H   0  0  0  0  0  0  0  0  0  0  0  0
    4.5207    0.4543    1.7621 H   0  0  0  0  0  0  0  0  0  0  0  0
    5.8322   -1.2234    2.9008 H   0  0  0  0  0  0  0  0  0  0  0  0
    3.1821   -4.2961    1.4467 H   0  0  0  0  0  0  0  0  0  0  0  0
    1.8882   -2.6429    0.2823 H   0  0  0  0  0  0  0  0  0  0  0  0
    4.9686   -5.3931    1.6183 H   0  0  0  0  0  0  0  0  0  0  0  0
    7.3842   -5.7975    2.9286 H   0  0  0  0  0  0  0  0  0  0  0  0
    4.9373   -6.8486    4.4935 H   0  0  0  0  0  0  0  0  0  0  0  0
    6.0799   -5.6536    5.0750 H   0  0  0  0  0  0  0  0  0  0  0  0
    6.7326   -8.5983    4.5406 H   0  0  0  0  0  0  0  0  0  0  0  0
    6.5114   -7.8455    6.1031 H   0  0  0  0  0  0  0  0  0  0  0  0
    8.0132   -6.5250    6.8701 H   0  0  0  0  0  0  0  0  0  0  0  0
    8.1984   -7.5207    2.0276 H   0  0  0  0  0  0  0  0  0  0  0  0
  1  2  1  0  0  0  0
  1 34  1  0  0  0  0
  1 35  1  0  0  0  0
  1 36  1  0  0  0  0
  2  3  1  0  0  0  0
  2 16  1  0  0  0  0
  3  4  1  0  0  0  0
  3 37  1  0  0  0  0
  3 38  1  0  0  0  0
  4  5  2  0  0  0  0
  4 15  1  0  0  0  0
  5  6  1  0  0  0  0
  5 39  1  0  0  0  0
  6  7  2  0  0  0  0
  7  8  1  0  0  0  0
  7 14  1  0  0  0  0
  8  9  2  0  0  0  0
  9 10  1  0  0  0  0
  9 11  1  0  0  0  0
 10 40  1  0  0  0  0
 10 41  1  0  0  0  0
 11 12  2  0  0  0  0
 12 13  1  0  0  0  0
 12 14  1  0  0  0  0
 13 42  1  0  0  0  0
 13 43  1  0  0  0  0
 14 15  2  0  0  0  0
 16 17  2  0  0  0  0
 16 21  1  0  0  0  0
 17 18  1  0  0  0  0
 17 44  1  0  0  0  0
 18 19  2  0  0  0  0
 18 45  1  0  0  0  0
 19 20  1  0  0  0  0
 19 22  1  0  0  0  0
 20 21  2  0  0  0  0
 20 46  1  0  0  0  0
 21 47  1  0  0  0  0
 22 23  2  0  0  0  0
 22 24  1  0  0  0  0
 24 25  1  0  0  0  0
 24 48  1  0  0  0  0
 25 26  1  0  0  0  0
 25 31  1  0  0  0  0
 25 49  1  0  0  0  0
 26 27  1  0  0  0  0
 26 50  1  0  0  0  0
 26 51  1  0  0  0  0
 27 28  1  0  0  0  0
 27 52  1  0  0  0  0
 27 53  1  0  0  0  0
 28 29  2  0  0  0  0
 28 30  1  0  0  0  0
 30 54  1  0  0  0  0
 31 32  2  0  0  0  0
 31 33  1  0  0  0  0
 33 55  1  0  0  0  0
M  END
$$$$

 OpenBabel12201709243D

 20 19  0  0  1  0  0  0  0  0999 V2000
    0.9057    0.9243    2.3884 C   0  0  0  0  0  0  0  0  0  0  0  0
    2.6768    1.1614    2.6628 S   0  0  0  0  0  0  0  0  0  0  0  0
    3.3103   -0.2449    1.6933 C   0  0  0  0  0  0  0  0  0  0  0  0
    4.8364   -0.3502    1.7604 C   0  0  0  0  0  0  0  0  0  0  0  0
    5.4257   -0.5342    3.1652 C   0  0  3  0  0  0  0  0  0  0  0  0
    4.9865   -1.8054    3.8158 N   0  0  0  0  0  0  0  0  0  0  0  0
    6.9667   -0.5398    3.1203 C   0  0  0  0  0  0  0  0  0  0  0  0
    7.6667    0.1216    2.3725 O   0  0  0  0  0  0  0  0  0  0  0  0
    7.4686   -1.3771    4.0692 O   0  0  0  0  0  0  0  0  0  0  0  0
    0.3554    1.7036    2.9221 H   0  0  0  0  0  0  0  0  0  0  0  0
    0.5882   -0.0489    2.7721 H   0  0  0  0  0  0  0  0  0  0  0  0
    0.6701    0.9978    1.3241 H   0  0  0  0  0  0  0  0  0  0  0  0
    3.0082   -0.1081    0.6496 H   0  0  0  0  0  0  0  0  0  0  0  0
    2.8485   -1.1684    2.0561 H   0  0  0  0  0  0  0  0  0  0  0  0
    5.2727    0.5462    1.2988 H   0  0  0  0  0  0  0  0  0  0  0  0
    5.1532   -1.1864    1.1221 H   0  0  0  0  0  0  0  0  0  0  0  0
    5.1554    0.2952    3.8271 H   0  0  0  0  0  0  0  0  0  0  0  0
    5.0702   -2.5644    3.1316 H   0  0  0  0  0  0  0  0  0  0  0  0
    3.9832   -1.7308    4.0053 H   0  0  0  0  0  0  0  0  0  0  0  0
    6.6807   -1.7917    4.5029 H   0  0  0  0  0  0  0  0  0  0  0  0
  1  2  1  0  0  0  0
  1 10  1  0  0  0  0
  1 11  1  0  0  0  0
  1 12  1  0  0  0  0
  2  3  1  0  0  0  0
  3  4  1  0  0  0  0
  3 13  1  0  0  0  0
  3 14  1  0  0  0  0
  4  5  1  0  0  0  0
  4 15  1  0  0  0  0
  4 16  1  0  0  0  0
  5  6  1  0  0  0  0
  5  7  1  0  0  0  0
  5 17  1  0  0  0  0
  6 18  1  0  0  0  0
  6 19  1  0  0  0  0
  7  8  2  0  0  0  0
  7  9  1  0  0  0  0
  9 20  1  0  0  0  0
M  END
$$$$

 OpenBabel12201709243D

 14 14  0  0  0  0  0  0  0  0999 V2000
    3.1575    0.8870   -0.6539 O   0  0  0  0  0  0  0  0  0  0  0  0
    2.4804   -0.0651    0.0215 C   0  0  0  0  0  0  0  0  0  0  0  0
    1.3914   -0.4869   -0.3244 O   0  0  0  0  0  0  0  0  0  0  0  0
    3.2040   -0.5850    1.1958 C   0  0  0  0  0  0  0  0  0  0  0  0
    4.0172    0.2113    2.0062 C   0  0  0  0  0  0  0  0  0  0  0  0
    4.6644   -0.3689    3.0955 C   0  0  0  0  0  0  0  0  0  0  0  0
    4.4657   -1.7196    3.3396 C   0  0  0  0  0  0  0  0  0  0  0  0
    3.6701   -2.5080    2.5841 N   0  0  0  0  0  0  0  0  0  0  0  0
    3.0445   -1.9217    1.5343 C   0  0  0  0  0  0  0  0  0  0  0  0
    4.0896    1.0047   -0.3919 H   0  0  0  0  0  0  0  0  0  0  0  0
    4.1298    1.2762    1.8248 H   0  0  0  0  0  0  0  0  0  0  0  0
    5.3008    0.2191    3.7489 H   0  0  0  0  0  0  0  0  0  0  0  0
    4.9481   -2.2158    4.1776 H   0  0  0  0  0  0  0  0  0  0  0  0
    2.3994   -2.5796    0.9559 H   0  0  0  0  0  0  0  0  0  0  0  0
  1  2  1  0  0  0  0
  1 10  1  0  0  0  0
  2  3  2  0  0  0  0
  2  4  1  0  0  0  0
  4  5  2  0  0  0  0
  4  9  1  0  0  0  0
  5  6  1  0  0  0  0
  5 11  1  0  0  0  0
  6  7  2  0  0  0  0
  6 12  1  0  0  0  0
  7  8  1  0  0  0  0
  7 13  1  0  0  0  0
  8  9  2  0  0  0  0
  9 14  1  0  0  0  0
M  END
$$$$

 OpenBabel12201709243D

 21 21  0  0  0  0  0  0  0  0999 V2000
    3.2165    1.2032   -0.7776 N   0  0  0  0  0  0  0  0  0  0  0  0
    2.4777    0.0634   -0.7428 C   0  0  0  0  0  0  0  0  0  0  0  0
    1.2567    0.0661   -0.6572 O   0  0  0  0  0  0  0  0  0  0  0  0
    3.2253   -1.0904   -0.8182 N   0  0  0  0  0  0  0  0  0  0  0  0
    4.5873   -1.0334   -0.8547 N   0  0  0  0  0  0  0  0  0  0  0  0
    5.2252   -2.1573   -0.9267 C   0  0  0  0  0  0  0  0  0  0  0  0
    6.6616   -2.1149   -0.9632 C   0  0  0  0  0  0  0  0  0  0  0  0
    7.5200   -1.0338   -0.9614 C   0  0  0  0  0  0  0  0  0  0  0  0
    8.8305   -1.5526   -0.9929 C   0  0  0  0  0  0  0  0  0  0  0  0
    8.7138   -2.9313   -1.0145 C   0  0  0  0  0  0  0  0  0  0  0  0
    7.3798   -3.2785   -1.0011 O   0  0  0  0  0  0  0  0  0  0  0  0
    9.7851   -3.8508   -1.0419 N   0  0  0  0  0  0  0  0  0  0  0  0
   10.9269   -3.4413   -1.0440 O   0  0  0  0  0  0  0  0  0  0  0  0
    9.5285   -5.2102   -1.0641 O   0  0  0  0  0  0  0  0  0  0  0  0
    2.7651    2.0819   -0.5806 H   0  0  0  0  0  0  0  0  0  0  0  0
    4.2078    1.0842   -0.6095 H   0  0  0  0  0  0  0  0  0  0  0  0
    2.7215   -1.9703   -0.8062 H   0  0  0  0  0  0  0  0  0  0  0  0
    4.7197   -3.1380   -0.9564 H   0  0  0  0  0  0  0  0  0  0  0  0
    7.2191    0.0051   -0.9359 H   0  0  0  0  0  0  0  0  0  0  0  0
    9.7586   -0.9978   -0.9961 H   0  0  0  0  0  0  0  0  0  0  0  0
    8.5595   -5.2217   -1.0566 H   0  0  0  0  0  0  0  0  0  0  0  0
  1  2  1  0  0  0  0
  1 15  1  0  0  0  0
  1 16  1  0  0  0  0
  2  3  2  0  0  0  0
  2  4  1  0  0  0  0
  4  5  1  0  0  0  0
  4 17  1  0  0  0  0
  5  6  2  3  0  0  0
  6  7  1  0  0  0  0
  6 18  1  0  0  0  0
  7  8  2  0  0  0  0
  7 11  1  0  0  0  0
  8  9  1  0  0  0  0
  8 19  1  0  0  0  0
  9 10  2  0  0  0  0
  9 20  1  0  0  0  0
 10 11  1  0  0  0  0
 10 12  1  0  0  0  0
 12 13  2  0  0  0  0
 12 14  1  0  0  0  0
 14 21  1  0  0  0  0
M  END
$$$$

 OpenBabel12201709243D

 16 16  0  0  0  0  0  0  0  0999 V2000
    1.2368    0.0699   -0.6070 N   0  0  0  0  0  0  0  0  0  0  0  0
    2.2717    0.0049    0.3424 N   0  0  0  0  0  0  0  0  0  0  0  0
    2.9713    1.2007    0.6431 C   0  0  0  0  0  0  0  0  0  0  0  0
    2.3843    2.4662    0.5077 C   0  0  0  0  0  0  0  0  0  0  0  0
    3.0840    3.6245    0.8568 C   0  0  0  0  0  0  0  0  0  0  0  0
    4.3762    3.5313    1.3681 C   0  0  0  0  0  0  0  0  0  0  0  0
    4.9606    2.2800    1.5445 C   0  0  0  0  0  0  0  0  0  0  0  0
    4.2563    1.1235    1.1966 C   0  0  0  0  0  0  0  0  0  0  0  0
    0.7608   -0.8300   -0.6869 H   0  0  0  0  0  0  0  0  0  0  0  0
    1.6121    0.2911   -1.5324 H   0  0  0  0  0  0  0  0  0  0  0  0
    2.9122   -0.7892    0.2675 H   0  0  0  0  0  0  0  0  0  0  0  0
    1.3662    2.5569    0.1351 H   0  0  0  0  0  0  0  0  0  0  0  0
    2.6135    4.5970    0.7368 H   0  0  0  0  0  0  0  0  0  0  0  0
    4.9197    4.4310    1.6416 H   0  0  0  0  0  0  0  0  0  0  0  0
    5.9628    2.2010    1.9573 H   0  0  0  0  0  0  0  0  0  0  0  0
    4.7265    0.1571    1.3583 H   0  0  0  0  0  0  0  0  0  0  0  0
  1  2  1  0  0  0  0
  1  9  1  0  0  0  0
  1 10  1  0  0  0  0
  2  3  1  0  0  0  0
  2 11  1  0  0  0  0
  3  4  2  0  0  0  0
  3  8  1  0  0  0  0
  4  5  1  0  0  0  0
  4 12  1  0  0  0  0
  5  6  2  0  0  0  0
  5 13  1  0  0  0  0
  6  7  1  0  0  0  0
  6 14  1  0  0  0  0
  7  8  2  0  0  0  0
  7 15  1  0  0  0  0
  8 16  1  0  0  0  0
M  END
$$$$

 OpenBabel12201709243D

 16 16  0  0  0  0  0  0  0  0999 V2000
    1.4661    0.3654   -0.2515 O   0  0  0  0  0  0  0  0  0  0  0  0
    2.6590    0.3521    0.0718 N   0  0  0  0  0  0  0  0  0  0  0  0
    2.7895    0.5662    1.3617 N   0  0  0  0  0  0  0  0  0  0  0  0
    4.0922    0.1208    1.8954 C   0  0  0  0  0  0  0  0  0  0  0  0
    5.2378    1.1014    1.6095 C   0  0  0  0  0  0  0  0  0  0  0  0
    4.9288    2.4079    2.1073 O   0  0  0  0  0  0  0  0  0  0  0  0
    3.7272    2.8993    1.5001 C   0  0  0  0  0  0  0  0  0  0  0  0
    2.5443    1.9630    1.7871 C   0  0  0  0  0  0  0  0  0  0  0  0
    4.3513   -0.8790    1.5230 H   0  0  0  0  0  0  0  0  0  0  0  0
    3.9843    0.0204    2.9834 H   0  0  0  0  0  0  0  0  0  0  0  0
    5.4634    1.1649    0.5386 H   0  0  0  0  0  0  0  0  0  0  0  0
    6.1466    0.7631    2.1182 H   0  0  0  0  0  0  0  0  0  0  0  0
    3.8927    3.0326    0.4251 H   0  0  0  0  0  0  0  0  0  0  0  0
    3.5272    3.8883    1.9279 H   0  0  0  0  0  0  0  0  0  0  0  0
    1.6303    2.3711    1.3366 H   0  0  0  0  0  0  0  0  0  0  0  0
    2.3676    1.9497    2.8703 H   0  0  0  0  0  0  0  0  0  0  0  0
  1  2  2  0  0  0  0
  2  3  1  0  0  0  0
  3  4  1  0  0  0  0
  3  8  1  0  0  0  0
  4  5  1  0  0  0  0
  4  9  1  0  0  0  0
  4 10  1  0  0  0  0
  5  6  1  0  0  0  0
  5 11  1  0  0  0  0
  5 12  1  0  0  0  0
  6  7  1  0  0  0  0
  7  8  1  0  0  0  0
  7 13  1  0  0  0  0
  7 14  1  0  0  0  0
  8 15  1  0  0  0  0
  8 16  1  0  0  0  0
M  END
$$$$

 OpenBabel12201709243D

 26 26  0  0  0  0  0  0  0  0999 V2000
    2.2310   -1.9627   -1.9216 C   0  0  0  0  0  0  0  0  0  0  0  0
    3.0398   -0.9197   -2.4244 O   0  0  0  0  0  0  0  0  0  0  0  0
    3.0617    0.4698   -1.5969 P   0  0  0  0  0  0  0  0  0  0  0  0
    1.7788    0.7176   -0.8616 O   0  0  0  0  0  0  0  0  0  0  0  0
    4.2986    0.2356   -0.5876 O   0  0  0  0  0  0  0  0  0  0  0  0
    5.5709   -0.0864   -1.1115 C   0  0  0  0  0  0  0  0  0  0  0  0
    3.5120    1.6251   -2.6745 N   0  0  0  0  0  0  0  0  0  0  0  0
    2.5733    1.8751   -3.7816 C   0  0  0  0  0  0  0  0  0  0  0  0
    1.4157    2.8015   -3.3822 C   0  0  0  0  0  0  0  0  0  0  0  0
    1.9197    4.0583   -2.9157 O   0  0  0  0  0  0  0  0  0  0  0  0
    2.7771    3.8627   -1.7848 C   0  0  0  0  0  0  0  0  0  0  0  0
    3.9422    2.9244   -2.1298 C   0  0  0  0  0  0  0  0  0  0  0  0
    1.1955   -1.7990   -2.2313 H   0  0  0  0  0  0  0  0  0  0  0  0
    2.2901   -2.0196   -0.8314 H   0  0  0  0  0  0  0  0  0  0  0  0
    2.5784   -2.9091   -2.3435 H   0  0  0  0  0  0  0  0  0  0  0  0
    6.3326    0.3055   -0.4321 H   0  0  0  0  0  0  0  0  0  0  0  0
    5.7330    0.3541   -2.0984 H   0  0  0  0  0  0  0  0  0  0  0  0
    5.6782   -1.1717   -1.1754 H   0  0  0  0  0  0  0  0  0  0  0  0
    2.1773    0.9306   -4.1675 H   0  0  0  0  0  0  0  0  0  0  0  0
    3.1323    2.3366   -4.6050 H   0  0  0  0  0  0  0  0  0  0  0  0
    0.7763    2.3569   -2.6120 H   0  0  0  0  0  0  0  0  0  0  0  0
    0.7861    3.0011   -4.2547 H   0  0  0  0  0  0  0  0  0  0  0  0
    2.1878    3.4868   -0.9410 H   0  0  0  0  0  0  0  0  0  0  0  0
    3.1721    4.8439   -1.5024 H   0  0  0  0  0  0  0  0  0  0  0  0
    4.5741    2.7825   -1.2466 H   0  0  0  0  0  0  0  0  0  0  0  0
    4.5753    3.4073   -2.8849 H   0  0  0  0  0  0  0  0  0  0  0  0
  1  2  1  0  0  0  0
  1 13  1  0  0  0  0
  1 14  1  0  0  0  0
  1 15  1  0  0  0  0
  2  3  1  0  0  0  0
  3  4  2  0  0  0  0
  3  5  1  0  0  0  0
  3  7  1  0  0  0  0
  5  6  1  0  0  0  0
  6 16  1  0  0  0  0
  6 17  1  0  0  0  0
  6 18  1  0  0  0  0
  7  8  1  0  0  0  0
  7 12  1  0  0  0  0
  8  9  1  0  0  0  0
  8 19  1  0  0  0  0
  8 20  1  0  0  0  0
  9 10  1  0  0  0  0
  9 21  1  0  0  0  0
  9 22  1  0  0  0  0
 10 11  1  0  0  0  0
 11 12  1  0  0  0  0
 11 23  1  0  0  0  0
 11 24  1  0  0  0  0
 12 25  1  0  0  0  0
 12 26  1  0  0  0  0
M  END
$$$$

 OpenBabel12201709243D

 10  9  0  0  0  0  0  0  0  0999 V2000
    1.1037   -0.0538    0.0233 C   0  0  0  0  0  0  0  0  0  0  0  0
    2.5313   -0.0558    0.0261 O   0  0  0  0  0  0  0  0  0  0  0  0
    3.0776    0.9767   -0.6532 C   0  0  0  0  0  0  0  0  0  0  0  0
    2.4753    1.8625   -1.2370 O   0  0  0  0  0  0  0  0  0  0  0  0
    4.4252    0.8987   -0.6010 N   0  0  0  0  0  0  0  0  0  0  0  0
    0.7625   -0.9215    0.5948 H   0  0  0  0  0  0  0  0  0  0  0  0
    0.7214   -0.1409   -0.9987 H   0  0  0  0  0  0  0  0  0  0  0  0
    0.7198    0.8506    0.5057 H   0  0  0  0  0  0  0  0  0  0  0  0
    4.8656    0.1416   -0.1029 H   0  0  0  0  0  0  0  0  0  0  0  0
    4.9754    1.6043   -1.0658 H   0  0  0  0  0  0  0  0  0  0  0  0
  1  2  1  0  0  0  0
  1  6  1  0  0  0  0
  1  7  1  0  0  0  0
  1  8  1  0  0  0  0
  2  3  1  0  0  0  0
  3  4  2  0  0  0  0
  3  5  1  0  0  0  0
  5  9  1  0  0  0  0
  5 10  1  0  0  0  0
M  END
$$$$

 OpenBabel12201709243D

 32 32  0  0  0  0  0  0  0  0999 V2000
    2.1838    1.9603    0.9561 O   0  0  0  0  0  0  0  0  0  0  0  0
    2.0064    0.8341    0.0941 C   0  0  0  0  0  0  0  0  0  0  0  0
    2.8734    0.9375   -1.1663 C   0  0  0  0  0  0  0  0  0  0  0  0
    4.3116    1.2153   -0.9289 N   0  0  0  0  0  0  0  0  0  0  0  0
    5.1042    0.1574   -0.2567 C   0  0  0  0  0  0  0  0  0  0  0  0
    5.4112    0.5000    1.2140 C   0  0  0  0  0  0  0  0  0  0  0  0
    4.2521    0.4898    2.0388 O   0  0  0  0  0  0  0  0  0  0  0  0
    4.9912    1.8352   -2.0121 C   0  0  0  0  0  0  0  0  0  0  0  0
    6.1312    2.6105   -1.7165 C   0  0  0  0  0  0  0  0  0  0  0  0
    6.7976    3.3596   -2.6966 C   0  0  0  0  0  0  0  0  0  0  0  0
    6.3382    3.3386   -4.0143 C   0  0  0  0  0  0  0  0  0  0  0  0
    5.2365    2.5525   -4.3546 C   0  0  0  0  0  0  0  0  0  0  0  0
    4.5838    1.8033   -3.3676 C   0  0  0  0  0  0  0  0  0  0  0  0
    3.5403    1.0092   -3.7741 O   0  0  0  0  0  0  0  0  0  0  0  0
    6.9614    4.1534   -5.0395 N   0  0  0  0  0  0  0  0  0  0  0  0
    6.2912    4.5424   -5.9724 O   0  0  0  0  0  0  0  0  0  0  0  0
    8.3126    4.4689   -5.0023 O   0  0  0  0  0  0  0  0  0  0  0  0
    1.4240    1.9732    1.5643 H   0  0  0  0  0  0  0  0  0  0  0  0
    0.9524    0.7993   -0.2046 H   0  0  0  0  0  0  0  0  0  0  0  0
    2.2223   -0.0791    0.6542 H   0  0  0  0  0  0  0  0  0  0  0  0
    2.4415    1.7708   -1.7354 H   0  0  0  0  0  0  0  0  0  0  0  0
    2.7528    0.0095   -1.7374 H   0  0  0  0  0  0  0  0  0  0  0  0
    6.0643   -0.0005   -0.7656 H   0  0  0  0  0  0  0  0  0  0  0  0
    4.5661   -0.7962   -0.3075 H   0  0  0  0  0  0  0  0  0  0  0  0
    5.8825    1.4829    1.3125 H   0  0  0  0  0  0  0  0  0  0  0  0
    6.0983   -0.2458    1.6225 H   0  0  0  0  0  0  0  0  0  0  0  0
    3.7080    1.2433    1.7176 H   0  0  0  0  0  0  0  0  0  0  0  0
    6.4768    2.6809   -0.6885 H   0  0  0  0  0  0  0  0  0  0  0  0
    7.6324    3.9857   -2.3914 H   0  0  0  0  0  0  0  0  0  0  0  0
    4.8889    2.5380   -5.3847 H   0  0  0  0  0  0  0  0  0  0  0  0
    3.3268    1.2124   -4.6995 H   0  0  0  0  0  0  0  0  0  0  0  0
    8.6434    3.8891   -4.3027 H   0  0  0  0  0  0  0  0  0  0  0  0
  1  2  1  0  0  0  0
  1 18  1  0  0  0  0
  2  3  1  0  0  0  0
  2 19  1  0  0  0  0
  2 20  1  0  0  0  0
  3  4  1  0  0  0  0
  3 21  1  0  0  0  0
  3 22  1  0  0  0  0
  4  5  1  0  0  0  0
  4  8  1  0  0  0  0
  5  6  1  0  0  0  0
  5 23  1  0  0  0  0
  5 24  1  0  0  0  0
  6  7  1  0  0  0  0
  6 25  1  0  0  0  0
  6 26  1  0  0  0  0
  7 27  1  0  0  0  0
  8  9  2  0  0  0  0
  8 13  1  0  0  0  0
  9 10  1  0  0  0  0
  9 28  1  0  0  0  0
 10 11  2  0  0  0  0
 10 29  1  0  0  0  0
 11 12  1  0  0  0  0
 11 15  1  0  0  0  0
 12 13  2  0  0  0  0
 12 30  1  0  0  0  0
 13 14  1  0  0  0  0
 14 31  1  0  0  0  0
 15 16  2  0  0  0  0
 15 17  1  0  0  0  0
 17 32  1  0  0  0  0
M  END
$$$$

 OpenBabel12201709243D

 26 26  0  0  1  0  0  0  0  0999 V2000
    1.0175   -0.0919    0.1512 C   0  0  0  0  0  0  0  0  0  0  0  0
    2.5156   -0.0046    0.2109 C   0  0  0  0  0  0  0  0  0  0  0  0
    3.1423    0.3390    1.3524 C   0  0  0  0  0  0  0  0  0  0  0  0
    3.3142   -0.3267   -1.0497 C   0  0  3  0  0  0  0  0  0  0  0  0
    3.0000    0.6107   -2.2313 C   0  0  0  0  0  0  0  0  0  0  0  0
    2.1315    0.0605   -3.3665 C   0  0  0  0  0  0  0  0  0  0  0  0
    2.1626   -1.4229   -3.5652 C   0  0  0  0  0  0  0  0  0  0  0  0
    2.6911   -2.2597   -2.6577 C   0  0  0  0  0  0  0  0  0  0  0  0
    3.3100   -1.8370   -1.3668 C   0  0  0  0  0  0  0  0  0  0  0  0
    1.5627   -1.9584   -4.8339 C   0  0  0  0  0  0  0  0  0  0  0  0
    0.5603    0.0869    1.1338 H   0  0  0  0  0  0  0  0  0  0  0  0
    0.6995   -1.0824   -0.1801 H   0  0  0  0  0  0  0  0  0  0  0  0
    0.6159    0.6567   -0.5358 H   0  0  0  0  0  0  0  0  0  0  0  0
    2.5981    0.5541    2.2672 H   0  0  0  0  0  0  0  0  0  0  0  0
    4.2277    0.3893    1.4147 H   0  0  0  0  0  0  0  0  0  0  0  0
    4.3606   -0.0972   -0.7967 H   0  0  0  0  0  0  0  0  0  0  0  0
    3.9586    0.9124   -2.6736 H   0  0  0  0  0  0  0  0  0  0  0  0
    2.5536    1.5508   -1.8752 H   0  0  0  0  0  0  0  0  0  0  0  0
    2.4666    0.5469   -4.2941 H   0  0  0  0  0  0  0  0  0  0  0  0
    1.0905    0.3703   -3.2174 H   0  0  0  0  0  0  0  0  0  0  0  0
    2.6794   -3.3302   -2.8497 H   0  0  0  0  0  0  0  0  0  0  0  0
    4.3504   -2.1856   -1.3843 H   0  0  0  0  0  0  0  0  0  0  0  0
    2.8271   -2.4016   -0.5595 H   0  0  0  0  0  0  0  0  0  0  0  0
    1.2793   -1.1491   -5.5172 H   0  0  0  0  0  0  0  0  0  0  0  0
    0.6628   -2.5434   -4.6192 H   0  0  0  0  0  0  0  0  0  0  0  0
    2.2803   -2.5945   -5.3645 H   0  0  0  0  0  0  0  0  0  0  0  0
  1  2  1  0  0  0  0
  1 11  1  0  0  0  0
  1 12  1  0  0  0  0
  1 13  1  0  0  0  0
  2  3  2  0  0  0  0
  2  4  1  0  0  0  0
  3 14  1  0  0  0  0
  3 15  1  0  0  0  0
  4  5  1  0  0  0  0
  4  9  1  0  0  0  0
  4 16  1  0  0  0  0
  5  6  1  0  0  0  0
  5 17  1  0  0  0  0
  5 18  1  0  0  0  0
  6  7  1  0  0  0  0
  6 19  1  0  0  0  0
  6 20  1  0  0  0  0
  7  8  2  0  0  0  0
  7 10  1  0  0  0  0
  8  9  1  0  0  0  0
  8 21  1  0  0  0  0
  9 22  1  0  0  0  0
  9 23  1  0  0  0  0
 10 24  1  0  0  0  0
 10 25  1  0  0  0  0
 10 26  1  0  0  0  0
M  END
$$$$

 OpenBabel12201709243D

 32 33  0  0  0  0  0  0  0  0999 V2000
    2.6921    1.5102   -0.0370 C   0  0  0  0  0  0  0  0  0  0  0  0
    2.5241    0.0862    0.2343 N   0  0  0  0  0  0  0  0  0  0  0  0
    1.2731   -0.5237   -0.2070 C   0  0  0  0  0  0  0  0  0  0  0  0
    3.2529   -0.5220    1.2579 C   0  0  0  0  0  0  0  0  0  0  0  0
    4.1811    0.1861    2.0403 C   0  0  0  0  0  0  0  0  0  0  0  0
    4.9260   -0.4333    3.0569 C   0  0  0  0  0  0  0  0  0  0  0  0
    4.7856   -1.7919    3.3265 C   0  0  0  0  0  0  0  0  0  0  0  0
    5.6237   -2.3736    4.2970 N   0  0  0  0  0  0  0  0  0  0  0  0
    5.0431   -3.2453    4.9771 N   0  0  0  0  0  0  0  0  0  0  0  0
    5.8961   -3.8745    5.9134 C   0  0  0  0  0  0  0  0  0  0  0  0
    7.2052   -3.4580    6.2084 C   0  0  0  0  0  0  0  0  0  0  0  0
    7.9868   -4.1393    7.1467 C   0  0  0  0  0  0  0  0  0  0  0  0
    7.4689   -5.2490    7.8098 C   0  0  0  0  0  0  0  0  0  0  0  0
    6.1710   -5.6754    7.5359 C   0  0  0  0  0  0  0  0  0  0  0  0
    5.3951   -4.9915    6.5960 C   0  0  0  0  0  0  0  0  0  0  0  0
    3.8822   -2.5196    2.5496 C   0  0  0  0  0  0  0  0  0  0  0  0
    3.1314   -1.8922    1.5417 C   0  0  0  0  0  0  0  0  0  0  0  0
    2.0509    1.8420   -0.8614 H   0  0  0  0  0  0  0  0  0  0  0  0
    3.7225    1.7253   -0.3428 H   0  0  0  0  0  0  0  0  0  0  0  0
    2.4355    2.1165    0.8391 H   0  0  0  0  0  0  0  0  0  0  0  0
    0.7475    0.1101   -0.9301 H   0  0  0  0  0  0  0  0  0  0  0  0
    0.5942   -0.6853    0.6376 H   0  0  0  0  0  0  0  0  0  0  0  0
    1.4584   -1.4759   -0.7146 H   0  0  0  0  0  0  0  0  0  0  0  0
    4.3524    1.2460    1.8837 H   0  0  0  0  0  0  0  0  0  0  0  0
    5.6316    0.1588    3.6355 H   0  0  0  0  0  0  0  0  0  0  0  0
    7.6316   -2.5945    5.7049 H   0  0  0  0  0  0  0  0  0  0  0  0
    8.9979   -3.8011    7.3557 H   0  0  0  0  0  0  0  0  0  0  0  0
    8.0761   -5.7796    8.5386 H   0  0  0  0  0  0  0  0  0  0  0  0
    5.7634   -6.5409    8.0513 H   0  0  0  0  0  0  0  0  0  0  0  0
    4.3839   -5.3337    6.3888 H   0  0  0  0  0  0  0  0  0  0  0  0
    3.7681   -3.5883    2.7075 H   0  0  0  0  0  0  0  0  0  0  0  0
    2.4637   -2.5231    0.9621 H   0  0  0  0  0  0  0  0  0  0  0  0
  1  2  1  0  0  0  0
  1 18  1  0  0  0  0
  1 19  1  0  0  0  0
  1 20  1  0  0  0  0
  2  3  1  0  0  0  0
  2  4  1  0  0  0  0
  3 21  1  0  0  0  0
  3 22  1  0  0  0  0
  3 23  1  0  0  0  0
  4  5  2  0  0  0  0
  4 17  1  0  0  0  0
  5  6  1  0  0  0  0
  5 24  1  0  0  0  0
  6  7  2  0  0  0  0
  6 25  1  0  0  0  0
  7  8  1  0  0  0  0
  7 16  1  0  0  0  0
  8  9  2  3  0  0  0
  9 10  1  0  0  0  0
 10 11  2  0  0  0  0
 10 15  1  0  0  0  0
 11 12  1  0  0  0  0
 11 26  1  0  0  0  0
 12 13  2  0  0  0  0
 12 27  1  0  0  0  0
 13 14  1  0  0  0  0
 13 28  1  0  0  0  0
 14 15  2  0  0  0  0
 14 29  1  0  0  0  0
 15 30  1  0  0  0  0
 16 17  2  0  0  0  0
 16 31  1  0  0  0  0
 17 32  1  0  0  0  0
M  END
$$$$

 OpenBabel12201709243D

 49 50  0  0  1  0  0  0  0  0999 V2000
    1.0258    0.2993   -0.3918 C   0  0  0  0  0  0  0  0  0  0  0  0
    2.5334    0.2254   -0.1137 C   0  0  3  0  0  0  0  0  0  0  0  0
    3.3460    0.1042   -1.4249 C   0  0  0  0  0  0  0  0  0  0  0  0
    2.9833   -1.1053   -2.2645 C   0  0  0  0  0  0  0  0  0  0  0  0
    2.5045   -0.9379   -3.5723 C   0  0  0  0  0  0  0  0  0  0  0  0
    2.1304   -2.0431   -4.3401 C   0  0  0  0  0  0  0  0  0  0  0  0
    2.2334   -3.3273   -3.8111 C   0  0  0  0  0  0  0  0  0  0  0  0
    2.7222   -3.5089   -2.5194 C   0  0  0  0  0  0  0  0  0  0  0  0
    3.1032   -2.4053   -1.7520 C   0  0  0  0  0  0  0  0  0  0  0  0
    2.8449    1.4488    0.6412 N   0  0  0  0  0  0  0  0  0  0  0  0
    4.2770    1.4312    1.0044 O   0  0  0  0  0  0  0  0  0  0  0  0
    4.7746    2.7701    1.8623 S   0  0  0  0  0  0  0  0  0  0  0  0
    4.5620    3.9472    1.0436 O   0  0  0  0  0  0  0  0  0  0  0  0
    4.1641    2.6702    3.1833 O   0  0  0  0  0  0  0  0  0  0  0  0
    6.4013    2.5340    2.0578 O   0  0  0  0  0  0  0  0  0  0  0  0
    7.0992    3.5864    2.8309 N   0  0  0  0  0  0  0  0  0  0  0  0
    8.5374    3.2803    2.7910 C   0  0  3  0  0  0  0  0  0  0  0  0
    8.8262    1.9393    3.4746 C   0  0  0  0  0  0  0  0  0  0  0  0
    9.1387    3.3180    1.3623 C   0  0  0  0  0  0  0  0  0  0  0  0
    8.9727    4.6051    0.5770 C   0  0  0  0  0  0  0  0  0  0  0  0
    8.9770    5.8671    1.1868 C   0  0  0  0  0  0  0  0  0  0  0  0
    8.8014    7.0282    0.4295 C   0  0  0  0  0  0  0  0  0  0  0  0
    8.6432    6.9464   -0.9512 C   0  0  0  0  0  0  0  0  0  0  0  0
    8.6782    5.7040   -1.5779 C   0  0  0  0  0  0  0  0  0  0  0  0
    8.8490    4.5426   -0.8205 C   0  0  0  0  0  0  0  0  0  0  0  0
    0.6619   -0.5927   -0.9102 H   0  0  0  0  0  0  0  0  0  0  0  0
    0.7790    1.1723   -1.0083 H   0  0  0  0  0  0  0  0  0  0  0  0
    0.4588    0.3791    0.5432 H   0  0  0  0  0  0  0  0  0  0  0  0
    2.7274   -0.6442    0.5261 H   0  0  0  0  0  0  0  0  0  0  0  0
    4.4184    0.0403   -1.2020 H   0  0  0  0  0  0  0  0  0  0  0  0
    3.2143    1.0180   -2.0201 H   0  0  0  0  0  0  0  0  0  0  0  0
    2.4076    0.0578   -4.0006 H   0  0  0  0  0  0  0  0  0  0  0  0
    1.7536   -1.8994   -5.3485 H   0  0  0  0  0  0  0  0  0  0  0  0
    1.9343   -4.1866   -4.4060 H   0  0  0  0  0  0  0  0  0  0  0  0
    2.8038   -4.5112   -2.1066 H   0  0  0  0  0  0  0  0  0  0  0  0
    3.4834   -2.5706   -0.7474 H   0  0  0  0  0  0  0  0  0  0  0  0
    2.3991    1.3900    1.5628 H   0  0  0  0  0  0  0  0  0  0  0  0
    6.7351    3.4268    3.7742 H   0  0  0  0  0  0  0  0  0  0  0  0
    9.0314    4.0494    3.3966 H   0  0  0  0  0  0  0  0  0  0  0  0
    8.5363    1.0901    2.8469 H   0  0  0  0  0  0  0  0  0  0  0  0
    8.2882    1.8564    4.4262 H   0  0  0  0  0  0  0  0  0  0  0  0
    9.8944    1.8485    3.6976 H   0  0  0  0  0  0  0  0  0  0  0  0
    8.6980    2.4972    0.7795 H   0  0  0  0  0  0  0  0  0  0  0  0
   10.2146    3.1078    1.4225 H   0  0  0  0  0  0  0  0  0  0  0  0
    9.0951    5.9697    2.2615 H   0  0  0  0  0  0  0  0  0  0  0  0
    8.7771    7.9965    0.9224 H   0  0  0  0  0  0  0  0  0  0  0  0
    8.4905    7.8491   -1.5360 H   0  0  0  0  0  0  0  0  0  0  0  0
    8.5625    5.6374   -2.6563 H   0  0  0  0  0  0  0  0  0  0  0  0
    8.8704    3.5831   -1.3319 H   0  0  0  0  0  0  0  0  0  0  0  0
  1  2  1  0  0  0  0
  1 26  1  0  0  0  0
  1 27  1  0  0  0  0
  1 28  1  0  0  0  0
  2  3  1  0  0  0  0
  2 10  1  0  0  0  0
  2 29  1  0  0  0  0
  3  4  1  0  0  0  0
  3 30  1  0  0  0  0
  3 31  1  0  0  0  0
  4  5  2  0  0  0  0
  4  9  1  0  0  0  0
  5  6  1  0  0  0  0
  5 32  1  0  0  0  0
  6  7  2  0  0  0  0
  6 33  1  0  0  0  0
  7  8  1  0  0  0  0
  7 34  1  0  0  0  0
  8  9  2  0  0  0  0
  8 35  1  0  0  0  0
  9 36  1  0  0  0  0
 10 11  1  0  0  0  0
 10 37  1  0  0  0  0
 11 12  1  0  0  0  0
 12 13  2  0  0  0  0
 12 14  2  0  0  0  0
 12 15  1  0  0  0  0
 15 16  1  0  0  0  0
 16 17  1  0  0  0  0
 16 38  1  0  0  0  0
 17 18  1  0  0  0  0
 17 19  1  0  0  0  0
 17 39  1  0  0  0  0
 18 40  1  0  0  0  0
 18 41  1  0  0  0  0
 18 42  1  0  0  0  0
 19 20  1  0  0  0  0
 19 43  1  0  0  0  0
 19 44  1  0  0  0  0
 20 21  2  0  0  0  0
 20 25  1  0  0  0  0
 21 22  1  0  0  0  0
 21 45  1  0  0  0  0
 22 23  2  0  0  0  0
 22 46  1  0  0  0  0
 23 24  1  0  0  0  0
 23 47  1  0  0  0  0
 24 25  2  0  0  0  0
 24 48  1  0  0  0  0
 25 49  1  0  0  0  0
M  END
$$$$

 OpenBabel12201709243D

  9  8  0  0  0  0  0  0  0  0999 V2000
    1.0504    0.0683    0.0715 C   0  0  0  0  0  0  0  0  0  0  0  0
    2.5106    0.0796    0.0472 N   0  0  0  0  0  0  0  0  0  0  0  0
    3.0045   -0.8202   -0.9629 N   0  0  0  0  0  0  0  0  0  0  0  0
    0.6941    0.7718    0.8302 H   0  0  0  0  0  0  0  0  0  0  0  0
    0.6604   -0.9242    0.3212 H   0  0  0  0  0  0  0  0  0  0  0  0
    0.6356    0.3838   -0.8918 H   0  0  0  0  0  0  0  0  0  0  0  0
    2.8713   -0.1642    0.9755 H   0  0  0  0  0  0  0  0  0  0  0  0
    2.8127   -0.4650   -1.9038 H   0  0  0  0  0  0  0  0  0  0  0  0
    2.5869   -1.7525   -0.9103 H   0  0  0  0  0  0  0  0  0  0  0  0
  1  2  1  0  0  0  0
  1  4  1  0  0  0  0
  1  5  1  0  0  0  0
  1  6  1  0  0  0  0
  2  3  1  0  0  0  0
  2  7  1  0  0  0  0
  3  8  1  0  0  0  0
  3  9  1  0  0  0  0
M  END
$$$$

 OpenBabel12201709243D

  9  8  0  0  0  0  0  0  0  0999 V2000
    1.0105    0.0890    0.0461 C   0  0  0  0  0  0  0  0  0  0  0  0
    2.5106    0.0427    0.0702 C   0  0  0  0  0  0  0  0  0  0  0  0
    3.1564   -0.8801    0.5497 O   0  0  0  0  0  0  0  0  0  0  0  0
    3.1207    1.1236   -0.4916 N   0  0  0  0  0  0  0  0  0  0  0  0
    0.6083   -0.8133    0.5150 H   0  0  0  0  0  0  0  0  0  0  0  0
    0.6574    0.1376   -0.9876 H   0  0  0  0  0  0  0  0  0  0  0  0
    0.6574    0.9629    0.6003 H   0  0  0  0  0  0  0  0  0  0  0  0
    2.6132    1.8982   -0.8942 H   0  0  0  0  0  0  0  0  0  0  0  0
    4.1321    1.1413   -0.5008 H   0  0  0  0  0  0  0  0  0  0  0  0
  1  2  1  0  0  0  0
  1  5  1  0  0  0  0
  1  6  1  0  0  0  0
  1  7  1  0  0  0  0
  2  3  2  0  0  0  0
  2  4  1  0  0  0  0
  4  8  1  0  0  0  0
  4  9  1  0  0  0  0
M  END
$$$$

 OpenBabel12201709243D

 24 23  0  0  0  0  0  0  0  0999 V2000
    1.0621   -0.4852    0.5488 C   0  0  0  0  0  0  0  0  0  0  0  0
    2.5007   -0.3872    0.6408 N   0  0  0  0  0  0  0  0  0  0  0  0
    3.0903    0.6677    1.3173 C   0  0  0  0  0  0  0  0  0  0  0  0
    2.4248    1.4956    1.9328 O   0  0  0  0  0  0  0  0  0  0  0  0
    4.6238    0.6569    1.2208 C   0  0  0  0  0  0  0  0  0  0  0  0
    5.3370    2.0810    2.0545 S   0  0  0  0  0  0  0  0  0  0  0  0
    7.4570    2.0810    2.0545 P   0  0  0  0  0  0  0  0  0  0  0  0
    7.5269    2.2075    0.0337 S   0  0  0  0  0  0  0  0  0  0  0  0
    7.5225    3.5145    2.8691 O   0  0  0  0  0  0  0  0  0  0  0  0
    7.6758    4.7476    2.1928 C   0  0  0  0  0  0  0  0  0  0  0  0
    9.1870    2.0810    2.0545 O   0  0  0  0  0  0  0  0  0  0  0  0
    9.7459    1.3172    3.1071 C   0  0  0  0  0  0  0  0  0  0  0  0
    0.8033   -1.4524    0.1165 H   0  0  0  0  0  0  0  0  0  0  0  0
    0.6911    0.3196   -0.0919 H   0  0  0  0  0  0  0  0  0  0  0  0
    0.6167   -0.3893    1.5434 H   0  0  0  0  0  0  0  0  0  0  0  0
    3.0564   -0.9405    0.0023 H   0  0  0  0  0  0  0  0  0  0  0  0
    4.8907    0.6654    0.1608 H   0  0  0  0  0  0  0  0  0  0  0  0
    4.9965   -0.2623    1.6831 H   0  0  0  0  0  0  0  0  0  0  0  0
    8.1850    5.4442    2.8643 H   0  0  0  0  0  0  0  0  0  0  0  0
    6.6918    5.1563    1.9488 H   0  0  0  0  0  0  0  0  0  0  0  0
    8.2828    4.6598    1.2904 H   0  0  0  0  0  0  0  0  0  0  0  0
   10.8352    1.3762    3.0465 H   0  0  0  0  0  0  0  0  0  0  0  0
    9.4380    0.2728    3.0075 H   0  0  0  0  0  0  0  0  0  0  0  0
    9.4173    1.7109    4.0724 H   0  0  0  0  0  0  0  0  0  0  0  0
  1  2  1  0  0  0  0
  1 13  1  0  0  0  0
  1 14  1  0  0  0  0
  1 15  1  0  0  0  0
  2  3  1  0  0  0  0
  2 16  1  0  0  0  0
  3  4  2  0  0  0  0
  3  5  1  0  0  0  0
  5  6  1  0  0  0  0
  5 17  1  0  0  0  0
  5 18  1  0  0  0  0
  6  7  1  0  0  0  0
  7  8  2  0  0  0  0
  7  9  1  0  0  0  0
  7 11  1  0  0  0  0
  9 10  1  0  0  0  0
 10 19  1  0  0  0  0
 10 20  1  0  0  0  0
 10 21  1  0  0  0  0
 11 12  1  0  0  0  0
 12 22  1  0  0  0  0
 12 23  1  0  0  0  0
 12 24  1  0  0  0  0
M  END
$$$$

 OpenBabel12201709243D

 13 13  0  0  0  0  0  0  0  0999 V2000
    0.9949    0.1124   -0.0893 C   0  0  0  0  0  0  0  0  0  0  0  0
    2.4369    0.0480   -0.0855 N   0  0  0  0  0  0  0  0  0  0  0  0
    3.2736    1.1471   -0.0800 C   0  0  0  0  0  0  0  0  0  0  0  0
    4.5453    0.7257   -0.0764 C   0  0  0  0  0  0  0  0  0  0  0  0
    4.5545   -0.6456   -0.0793 N   0  0  0  0  0  0  0  0  0  0  0  0
    5.3704   -1.2412   -0.0774 H   0  0  0  0  0  0  0  0  0  0  0  0
    3.2317   -1.1187   -0.0849 C   0  0  0  0  0  0  0  0  0  0  0  0
    2.7922   -2.7109   -0.0894 S   0  0  0  0  0  0  0  0  0  0  0  0
    0.6539    1.1515   -0.0917 H   0  0  0  0  0  0  0  0  0  0  0  0
    0.6130   -0.3974    0.8000 H   0  0  0  0  0  0  0  0  0  0  0  0
    0.6173   -0.4000   -0.9789 H   0  0  0  0  0  0  0  0  0  0  0  0
    2.8984    2.1591   -0.0790 H   0  0  0  0  0  0  0  0  0  0  0  0
    5.4554    1.3052   -0.0717 H   0  0  0  0  0  0  0  0  0  0  0  0
  1  2  1  0  0  0  0
  1  9  1  0  0  0  0
  1 10  1  0  0  0  0
  1 11  1  0  0  0  0
  2  3  1  0  0  0  0
  2  7  1  0  0  0  0
  3  4  2  0  0  0  0
  3 12  1  0  0  0  0
  4  5  1  0  0  0  0
  4 13  1  0  0  0  0
  5  6  1  0  0  0  0
  5  7  1  0  0  0  0
  7  8  2  0  0  0  0
M  END
$$$$

 OpenBabel12201709243D

 27 31  0  0  1  0  0  0  0  0999 V2000
    1.1878    0.2254    0.0575 Cl  0  0  0  0  0  0  0  0  0  0  0  0
    2.8376    0.4471   -0.2445 C   0  0  0  0  0  0  0  0  0  0  0  0
    3.7119    1.2296    0.4132 C   0  0  0  0  0  0  0  0  0  0  0  0
    3.3983    2.2685    1.7074 Cl  0  0  0  0  0  0  0  0  0  0  0  0
    5.0707    1.0745   -0.2856 C   0  0  3  0  0  0  0  0  0  0  0  0
    6.2460    2.3342    0.0356 Cl  0  0  0  0  0  0  0  0  0  0  0  0
    5.5831   -0.3696    0.0698 C   0  0  3  0  0  0  0  0  0  0  0  0
    6.8172   -1.0906   -0.5903 C   0  0  3  0  0  0  0  0  0  0  0  0
    6.2639   -1.9052   -1.7987 C   0  0  0  0  0  0  0  0  0  0  0  0
    5.1610   -2.5507   -0.9837 C   0  0  3  0  0  0  0  0  0  0  0  0
    5.9587   -3.1776    0.1657 C   0  0  3  0  0  0  0  0  0  0  0  0
    7.3098   -3.5628   -0.1182 O   0  0  0  0  0  0  0  0  0  0  0  0
    7.1106   -2.2396    0.3935 C   0  0  3  0  0  0  0  0  0  0  0  0
    4.4259   -1.3006   -0.4367 C   0  0  3  0  0  0  0  0  0  0  0  0
    3.6230   -0.2752   -1.3350 C   0  0  3  0  0  0  0  0  0  0  0  0
    2.7044   -0.9963   -2.6313 Cl  0  0  0  0  0  0  0  0  0  0  0  0
    4.5383    0.9642   -1.7309 C   0  0  0  0  0  0  0  0  0  0  0  0
    5.8097    0.8824   -2.9799 Cl  0  0  0  0  0  0  0  0  0  0  0  0
    3.5768    2.4266   -2.3120 Cl  0  0  0  0  0  0  0  0  0  0  0  0
    5.6724   -0.4274    1.1674 H   0  0  0  0  0  0  0  0  0  0  0  0
    7.6848   -0.4579   -0.7893 H   0  0  0  0  0  0  0  0  0  0  0  0
    6.9972   -2.6165   -2.1964 H   0  0  0  0  0  0  0  0  0  0  0  0
    5.8401   -1.4130   -2.6565 H   0  0  0  0  0  0  0  0  0  0  0  0
    4.5325   -3.2649   -1.5168 H   0  0  0  0  0  0  0  0  0  0  0  0
    5.4257   -3.6146    0.9890 H   0  0  0  0  0  0  0  0  0  0  0  0
    7.4671   -1.9875    1.3773 H   0  0  0  0  0  0  0  0  0  0  0  0
    3.8150   -1.6403    0.4146 H   0  0  0  0  0  0  0  0  0  0  0  0
  1  2  1  0  0  0  0
  2  3  2  0  0  0  0
  2 15  1  0  0  0  0
  3  4  1  0  0  0  0
  3  5  1  0  0  0  0
  5  6  1  0  0  0  0
  5  7  1  0  0  0  0
  5 17  1  0  0  0  0
  7  8  1  0  0  0  0
  7 14  1  0  0  0  0
  7 20  1  0  0  0  0
  8  9  1  0  0  0  0
  8 13  1  0  0  0  0
  8 21  1  0  0  0  0
  9 10  1  0  0  0  0
  9 22  1  0  0  0  0
  9 23  1  0  0  0  0
 10 11  1  0  0  0  0
 10 14  1  0  0  0  0
 10 24  1  0  0  0  0
 11 12  1  0  0  0  0
 11 13  1  0  0  0  0
 11 25  1  0  0  0  0
 12 13  1  0  0  0  0
 13 26  1  0  0  0  0
 14 15  1  0  0  0  0
 14 27  1  0  0  0  0
 15 16  1  0  0  0  0
 15 17  1  0  0  0  0
 17 18  1  0  0  0  0
 17 19  1  0  0  0  0
M  END
$$$$

 OpenBabel12201709243D

 26 27  0  0  0  0  0  0  0  0999 V2000
    1.0319    0.1427    0.1628 C   0  0  0  0  0  0  0  0  0  0  0  0
    2.5240    0.1033    0.2091 C   0  0  0  0  0  0  0  0  0  0  0  0
    3.2955    1.1910    0.1590 C   0  0  0  0  0  0  0  0  0  0  0  0
    4.6865    0.7073    0.1026 C   0  0  0  0  0  0  0  0  0  0  0  0
    5.6125    1.4986    0.0418 O   0  0  0  0  0  0  0  0  0  0  0  0
    4.6475   -0.7057    0.1313 N   0  0  0  0  0  0  0  0  0  0  0  0
    5.7964   -1.5641    0.1414 C   0  0  0  0  0  0  0  0  0  0  0  0
    7.0866   -1.0134    0.0012 C   0  0  0  0  0  0  0  0  0  0  0  0
    8.2414   -1.8008   -0.0989 C   0  0  0  0  0  0  0  0  0  0  0  0
    8.1405   -3.1817   -0.0809 C   0  0  0  0  0  0  0  0  0  0  0  0
    6.8905   -3.7599    0.1084 C   0  0  0  0  0  0  0  0  0  0  0  0
    5.7449   -2.9590    0.2594 C   0  0  0  0  0  0  0  0  0  0  0  0
    3.2652   -1.0808    0.2525 N   0  0  0  0  0  0  0  0  0  0  0  0
    2.7051   -2.3474   -0.1786 C   0  0  0  0  0  0  0  0  0  0  0  0
    0.6595    1.1732    0.1843 H   0  0  0  0  0  0  0  0  0  0  0  0
    0.6005   -0.3922    1.0221 H   0  0  0  0  0  0  0  0  0  0  0  0
    0.6581   -0.3101   -0.7605 H   0  0  0  0  0  0  0  0  0  0  0  0
    3.0250    2.2282    0.1009 H   0  0  0  0  0  0  0  0  0  0  0  0
    7.2492    0.0591   -0.0366 H   0  0  0  0  0  0  0  0  0  0  0  0
    9.2122   -1.3215   -0.2019 H   0  0  0  0  0  0  0  0  0  0  0  0
    9.0271   -3.7985   -0.1947 H   0  0  0  0  0  0  0  0  0  0  0  0
    6.8026   -4.8432    0.1412 H   0  0  0  0  0  0  0  0  0  0  0  0
    4.8284   -3.4843    0.4864 H   0  0  0  0  0  0  0  0  0  0  0  0
    3.3839   -2.9788   -0.7496 H   0  0  0  0  0  0  0  0  0  0  0  0
    1.8441   -2.2054   -0.8406 H   0  0  0  0  0  0  0  0  0  0  0  0
    2.3421   -2.8912    0.7027 H   0  0  0  0  0  0  0  0  0  0  0  0
  1  2  1  0  0  0  0
  1 15  1  0  0  0  0
  1 16  1  0  0  0  0
  1 17  1  0  0  0  0
  2  3  2  0  0  0  0
  2 13  1  0  0  0  0
  3  4  1  0  0  0  0
  3 18  1  0  0  0  0
  4  5  2  0  0  0  0
  4  6  1  0  0  0  0
  6  7  1  0  0  0  0
  6 13  1  0  0  0  0
  7  8  2  0  0  0  0
  7 12  1  0  0  0  0
  8  9  1  0  0  0  0
  8 19  1  0  0  0  0
  9 10  2  0  0  0  0
  9 20  1  0  0  0  0
 10 11  1  0  0  0  0
 10 21  1  0  0  0  0
 11 12  2  0  0  0  0
 11 22  1  0  0  0  0
 12 23  1  0  0  0  0
 13 14  1  0  0  0  0
 14 24  1  0  0  0  0
 14 25  1  0  0  0  0
 14 26  1  0  0  0  0
M  END
$$$$

 OpenBabel12201709243D

 25 27  0  0  0  0  0  0  0  0999 V2000
    1.2260   -0.8114    0.4259 O   0  0  0  0  0  0  0  0  0  0  0  0
    2.3323   -0.0806    0.0566 N   0  0  0  0  0  0  0  0  0  0  0  0
    2.6779    0.8264    0.7839 O   0  0  0  0  0  0  0  0  0  0  0  0
    3.0710   -0.4198   -1.1344 C   0  0  0  0  0  0  0  0  0  0  0  0
    3.0968   -1.7818   -1.5220 C   0  0  0  0  0  0  0  0  0  0  0  0
    3.7591   -2.2042   -2.6841 C   0  0  0  0  0  0  0  0  0  0  0  0
    4.3748   -1.2138   -3.4336 C   0  0  0  0  0  0  0  0  0  0  0  0
    5.1245   -1.3598   -4.7132 C   0  0  0  0  0  0  0  0  0  0  0  0
    5.5545    0.0962   -5.0695 C   0  0  0  0  0  0  0  0  0  0  0  0
    5.0112    0.9181   -3.9526 C   0  0  0  0  0  0  0  0  0  0  0  0
    5.1039    2.2898   -3.7711 C   0  0  0  0  0  0  0  0  0  0  0  0
    4.4846    2.8084   -2.6259 C   0  0  0  0  0  0  0  0  0  0  0  0
    3.8017    1.9789   -1.7140 C   0  0  0  0  0  0  0  0  0  0  0  0
    3.7191    0.5764   -1.9147 C   0  0  0  0  0  0  0  0  0  0  0  0
    4.3451    0.1131   -3.0466 C   0  0  0  0  0  0  0  0  0  0  0  0
    1.0060   -0.3077    1.2271 H   0  0  0  0  0  0  0  0  0  0  0  0
    2.5941   -2.5306   -0.9112 H   0  0  0  0  0  0  0  0  0  0  0  0
    3.7846   -3.2449   -2.9870 H   0  0  0  0  0  0  0  0  0  0  0  0
    4.4792   -1.7802   -5.4914 H   0  0  0  0  0  0  0  0  0  0  0  0
    5.9978   -2.0059   -4.5776 H   0  0  0  0  0  0  0  0  0  0  0  0
    5.1202    0.4110   -6.0242 H   0  0  0  0  0  0  0  0  0  0  0  0
    6.6444    0.1842   -5.1202 H   0  0  0  0  0  0  0  0  0  0  0  0
    5.6262    2.9232   -4.4790 H   0  0  0  0  0  0  0  0  0  0  0  0
    4.5297    3.8789   -2.4351 H   0  0  0  0  0  0  0  0  0  0  0  0
    3.3407    2.4424   -0.8451 H   0  0  0  0  0  0  0  0  0  0  0  0
  1  2  1  0  0  0  0
  1 16  1  0  0  0  0
  2  3  2  0  0  0  0
  2  4  1  0  0  0  0
  4  5  2  0  0  0  0
  4 14  1  0  0  0  0
  5  6  1  0  0  0  0
  5 17  1  0  0  0  0
  6  7  2  0  0  0  0
  6 18  1  0  0  0  0
  7  8  1  0  0  0  0
  7 15  1  0  0  0  0
  8  9  1  0  0  0  0
  8 19  1  0  0  0  0
  8 20  1  0  0  0  0
  9 10  1  0  0  0  0
  9 21  1  0  0  0  0
  9 22  1  0  0  0  0
 10 11  2  0  0  0  0
 10 15  1  0  0  0  0
 11 12  1  0  0  0  0
 11 23  1  0  0  0  0
 12 13  2  0  0  0  0
 12 24  1  0  0  0  0
 13 14  1  0  0  0  0
 13 25  1  0  0  0  0
 14 15  2  0  0  0  0
M  END
$$$$

 OpenBabel12201709243D

 15 14  0  0  0  0  0  0  0  0999 V2000
    1.2847    0.0567    0.3142 N   0  0  0  0  0  0  0  0  0  0  0  0
    2.6296    0.0148    0.0854 C   0  0  0  0  0  0  0  0  0  0  0  0
    3.3471   -0.2568    1.0460 O   0  0  0  0  0  0  0  0  0  0  0  0
    3.0834    0.3241   -1.1858 N   0  0  0  0  0  0  0  0  0  0  0  0
    2.2461    0.5681   -2.3641 C   0  0  0  0  0  0  0  0  0  0  0  0
    2.2571    1.9708   -2.9474 C   0  0  0  0  0  0  0  0  0  0  0  0
    1.5455    2.2814   -3.8934 O   0  0  0  0  0  0  0  0  0  0  0  0
    3.0789    2.8711   -2.3663 O   0  0  0  0  0  0  0  0  0  0  0  0
    4.4791    0.2080   -1.3492 N   0  0  0  0  0  0  0  0  0  0  0  0
    4.8810    0.5502   -2.4658 O   0  0  0  0  0  0  0  0  0  0  0  0
    1.0441   -0.2829    1.2410 H   0  0  0  0  0  0  0  0  0  0  0  0
    0.5993   -0.1771   -0.3860 H   0  0  0  0  0  0  0  0  0  0  0  0
    1.2021    0.3553   -2.1336 H   0  0  0  0  0  0  0  0  0  0  0  0
    2.5516   -0.1394   -3.1494 H   0  0  0  0  0  0  0  0  0  0  0  0
    3.6753    2.4987   -1.6851 H   0  0  0  0  0  0  0  0  0  0  0  0
  1  2  1  0  0  0  0
  1 11  1  0  0  0  0
  1 12  1  0  0  0  0
  2  3  2  0  0  0  0
  2  4  1  0  0  0  0
  4  5  1  0  0  0  0
  4  9  1  0  0  0  0
  5  6  1  0  0  0  0
  5 13  1  0  0  0  0
  5 14  1  0  0  0  0
  6  7  2  0  0  0  0
  6  8  1  0  0  0  0
  8 15  1  0  0  0  0
  9 10  2  0  0  0  0
M  END
$$$$

 OpenBabel12201709243D

 20 21  0  0  0  0  0  0  0  0999 V2000
    1.7795    1.3354    0.2529 O   0  0  0  0  0  0  0  0  0  0  0  0
    2.2423    0.0642    0.0091 N   0  0  0  0  0  0  0  0  0  0  0  0
    1.9212   -0.4549   -1.0434 O   0  0  0  0  0  0  0  0  0  0  0  0
    2.9318   -0.7112    1.0099 C   0  0  0  0  0  0  0  0  0  0  0  0
    2.7061   -2.0997    1.0408 C   0  0  0  0  0  0  0  0  0  0  0  0
    3.3234   -2.8811    2.0080 C   0  0  0  0  0  0  0  0  0  0  0  0
    4.1608   -2.2760    2.9397 C   0  0  0  0  0  0  0  0  0  0  0  0
    4.4025   -0.8915    2.8941 C   0  0  0  0  0  0  0  0  0  0  0  0
    5.2586   -0.2892    3.8266 C   0  0  0  0  0  0  0  0  0  0  0  0
    5.5084    1.0740    3.7625 C   0  0  0  0  0  0  0  0  0  0  0  0
    4.8972    1.7925    2.7580 C   0  0  0  0  0  0  0  0  0  0  0  0
    4.0642    1.2465    1.8467 N   0  0  0  0  0  0  0  0  0  0  0  0
    3.7949   -0.0774    1.9090 C   0  0  0  0  0  0  0  0  0  0  0  0
    1.3710    1.4925   -0.6123 H   0  0  0  0  0  0  0  0  0  0  0  0
    2.0465   -2.5670    0.3117 H   0  0  0  0  0  0  0  0  0  0  0  0
    3.1520   -3.9540    2.0384 H   0  0  0  0  0  0  0  0  0  0  0  0
    4.6352   -2.8944    3.6997 H   0  0  0  0  0  0  0  0  0  0  0  0
    5.7356   -0.8794    4.6050 H   0  0  0  0  0  0  0  0  0  0  0  0
    6.1693    1.5589    4.4713 H   0  0  0  0  0  0  0  0  0  0  0  0
    5.0603    2.8611    2.6514 H   0  0  0  0  0  0  0  0  0  0  0  0
  1  2  1  0  0  0  0
  1 14  1  0  0  0  0
  2  3  2  0  0  0  0
  2  4  1  0  0  0  0
  4  5  2  0  0  0  0
  4 13  1  0  0  0  0
  5  6  1  0  0  0  0
  5 15  1  0  0  0  0
  6  7  2  0  0  0  0
  6 16  1  0  0  0  0
  7  8  1  0  0  0  0
  7 17  1  0  0  0  0
  8  9  2  0  0  0  0
  8 13  1  0  0  0  0
  9 10  1  0  0  0  0
  9 18  1  0  0  0  0
 10 11  2  0  0  0  0
 10 19  1  0  0  0  0
 11 12  1  0  0  0  0
 11 20  1  0  0  0  0
 12 13  2  0  0  0  0
M  END
$$$$

 OpenBabel12201709243D

 16 16  0  0  0  0  0  0  0  0999 V2000
    1.1329    0.0322   -0.1482 N   0  0  0  0  0  0  0  0  0  0  0  0
    2.5225    0.0640    0.0052 C   0  0  0  0  0  0  0  0  0  0  0  0
    3.2070    1.2787   -0.0428 C   0  0  0  0  0  0  0  0  0  0  0  0
    4.6068    1.3102   -0.0381 C   0  0  0  0  0  0  0  0  0  0  0  0
    5.3853    2.8573   -0.0752 Cl  0  0  0  0  0  0  0  0  0  0  0  0
    5.3662    0.1284    0.0084 C   0  0  0  0  0  0  0  0  0  0  0  0
    6.7703    0.1600   -0.1431 N   0  0  0  0  0  0  0  0  0  0  0  0
    4.6611   -1.0868   -0.0337 C   0  0  0  0  0  0  0  0  0  0  0  0
    5.5092   -2.5973   -0.0648 Cl  0  0  0  0  0  0  0  0  0  0  0  0
    3.2613   -1.1186   -0.0385 C   0  0  0  0  0  0  0  0  0  0  0  0
    0.6504    0.8654    0.1754 H   0  0  0  0  0  0  0  0  0  0  0  0
    0.6884   -0.8208    0.1782 H   0  0  0  0  0  0  0  0  0  0  0  0
    2.6516    2.2114   -0.0972 H   0  0  0  0  0  0  0  0  0  0  0  0
    7.1939    1.0227    0.1893 H   0  0  0  0  0  0  0  0  0  0  0  0
    7.2326   -0.6814    0.1926 H   0  0  0  0  0  0  0  0  0  0  0  0
    2.7490   -2.0759   -0.0892 H   0  0  0  0  0  0  0  0  0  0  0  0
  1  2  1  0  0  0  0
  1 11  1  0  0  0  0
  1 12  1  0  0  0  0
  2  3  2  0  0  0  0
  2 10  1  0  0  0  0
  3  4  1  0  0  0  0
  3 13  1  0  0  0  0
  4  5  1  0  0  0  0
  4  6  2  0  0  0  0
  6  7  1  0  0  0  0
  6  8  1  0  0  0  0
  7 14  1  0  0  0  0
  7 15  1  0  0  0  0
  8  9  1  0  0  0  0
  8 10  2  0  0  0  0
 10 16  1  0  0  0  0
M  END
$$$$

 OpenBabel12201709243D

 25 25  0  0  1  0  0  0  0  0999 V2000
    0.9481    0.1450    0.0992 C   0  0  0  0  0  0  0  0  0  0  0  0
    2.4033    0.1637    0.0689 N   0  0  0  0  0  0  0  0  0  0  0  0
    2.8893    0.7998   -1.1633 C   0  0  0  0  0  0  0  0  0  0  0  0
    4.4367    0.7916   -1.2645 C   0  0  3  0  0  0  0  0  0  0  0  0
    4.9445   -0.5467   -1.2743 O   0  0  0  0  0  0  0  0  0  0  0  0
    4.8632    1.5387   -2.5133 C   0  0  0  0  0  0  0  0  0  0  0  0
    5.1158    2.9189   -2.4386 C   0  0  0  0  0  0  0  0  0  0  0  0
    5.3874    3.6583   -3.5916 C   0  0  0  0  0  0  0  0  0  0  0  0
    5.4064    3.0318   -4.8367 C   0  0  0  0  0  0  0  0  0  0  0  0
    5.1660    1.6647   -4.9138 C   0  0  0  0  0  0  0  0  0  0  0  0
    5.1500    1.0130   -6.1117 O   0  0  0  0  0  0  0  0  0  0  0  0
    4.9053    0.9171   -3.7703 C   0  0  0  0  0  0  0  0  0  0  0  0
    0.6048   -0.3504    1.0119 H   0  0  0  0  0  0  0  0  0  0  0  0
    0.5315   -0.3961   -0.7567 H   0  0  0  0  0  0  0  0  0  0  0  0
    0.5450    1.1633    0.1062 H   0  0  0  0  0  0  0  0  0  0  0  0
    2.7760   -0.7846    0.1306 H   0  0  0  0  0  0  0  0  0  0  0  0
    2.5277    1.8347   -1.2041 H   0  0  0  0  0  0  0  0  0  0  0  0
    2.4731    0.2640   -2.0268 H   0  0  0  0  0  0  0  0  0  0  0  0
    4.8736    1.2784   -0.3840 H   0  0  0  0  0  0  0  0  0  0  0  0
    4.3699   -1.0718   -1.8531 H   0  0  0  0  0  0  0  0  0  0  0  0
    5.0821    3.4308   -1.4782 H   0  0  0  0  0  0  0  0  0  0  0  0
    5.5704    4.7270   -3.5177 H   0  0  0  0  0  0  0  0  0  0  0  0
    5.6024    3.6215   -5.7254 H   0  0  0  0  0  0  0  0  0  0  0  0
    5.2925    1.6636   -6.8183 H   0  0  0  0  0  0  0  0  0  0  0  0
    4.7165   -0.1471   -3.8763 H   0  0  0  0  0  0  0  0  0  0  0  0
  1  2  1  0  0  0  0
  1 13  1  0  0  0  0
  1 14  1  0  0  0  0
  1 15  1  0  0  0  0
  2  3  1  0  0  0  0
  2 16  1  0  0  0  0
  3  4  1  0  0  0  0
  3 17  1  0  0  0  0
  3 18  1  0  0  0  0
  4  5  1  0  0  0  0
  4  6  1  0  0  0  0
  4 19  1  0  0  0  0
  5 20  1  0  0  0  0
  6  7  2  0  0  0  0
  6 12  1  0  0  0  0
  7  8  1  0  0  0  0
  7 21  1  0  0  0  0
  8  9  2  0  0  0  0
  8 22  1  0  0  0  0
  9 10  1  0  0  0  0
  9 23  1  0  0  0  0
 10 11  1  0  0  0  0
 10 12  2  0  0  0  0
 11 24  1  0  0  0  0
 12 25  1  0  0  0  0
M  END
$$$$

 OpenBabel12201709243D

 10 10  0  0  0  0  0  0  0  0999 V2000
    0.9955    0.0263    0.0259 N   0  0  0  0  0  0  0  0  0  0  0  0
    2.2714   -0.0395    0.0543 C   0  0  0  0  0  0  0  0  0  0  0  0
    2.9988    1.1239   -0.0432 N   0  0  0  0  0  0  0  0  0  0  0  0
    4.2105    0.6715   -0.1994 C   0  0  0  0  0  0  0  0  0  0  0  0
    4.3351   -0.6992   -0.2386 N   0  0  0  0  0  0  0  0  0  0  0  0
    5.1251   -1.0930    0.2691 H   0  0  0  0  0  0  0  0  0  0  0  0
    3.0733   -1.1578    0.0886 N   0  0  0  0  0  0  0  0  0  0  0  0
    2.6735   -1.9338   -0.4319 H   0  0  0  0  0  0  0  0  0  0  0  0
    0.7914    1.0315   -0.0308 H   0  0  0  0  0  0  0  0  0  0  0  0
    5.1351    1.2634   -0.2733 H   0  0  0  0  0  0  0  0  0  0  0  0
  1  2  2  0  0  0  0
  1  9  1  0  0  0  0
  2  3  1  0  0  0  0
  2  7  1  0  0  0  0
  3  4  2  0  0  0  0
  4  5  1  0  0  0  0
  4 10  1  0  0  0  0
  5  6  1  0  0  0  0
  5  7  1  0  0  0  0
  7  8  1  0  0  0  0
M  END
$$$$

 OpenBabel12201709243D

 35 36  0  0  1  0  0  0  0  0999 V2000
    0.7211    0.0995   -0.0235 C   0  0  0  0  0  0  0  0  0  0  0  0
    2.2503    0.0309   -0.0790 C   0  0  3  0  0  0  0  0  0  0  0  0
    2.8109   -1.3685   -0.4398 C   0  0  0  0  0  0  0  0  0  0  0  0
    2.6225   -1.7749   -1.8439 N   0  0  0  0  0  0  0  0  0  0  0  0
    3.1081   -0.7100   -2.7556 C   0  0  0  0  0  0  0  0  0  0  0  0
    2.5796    0.7158   -2.4332 C   0  0  3  0  0  0  0  0  0  0  0  0
    3.0895    1.6863   -3.5020 C   0  0  0  0  0  0  0  0  0  0  0  0
    2.8373    1.0381   -0.9961 N   0  0  0  0  0  0  0  0  0  0  0  0
    3.5934    2.1566   -0.5975 C   0  0  0  0  0  0  0  0  0  0  0  0
    4.0149    3.0024   -1.3799 O   0  0  0  0  0  0  0  0  0  0  0  0
    3.9161    2.4212    0.8385 C   0  0  0  0  0  0  0  0  0  0  0  0
    4.3922    1.4363    1.7108 C   0  0  0  0  0  0  0  0  0  0  0  0
    4.6013    1.7315    3.0613 C   0  0  0  0  0  0  0  0  0  0  0  0
    4.4480    3.0374    3.5236 C   0  0  0  0  0  0  0  0  0  0  0  0
    4.0932    4.0502    2.6399 C   0  0  0  0  0  0  0  0  0  0  0  0
    3.8177    3.7424    1.3017 C   0  0  0  0  0  0  0  0  0  0  0  0
    1.4220   -2.2458   -2.0898 N   0  0  0  0  0  0  0  0  0  0  0  0
    1.3607   -2.7621   -3.2103 O   0  0  0  0  0  0  0  0  0  0  0  0
    0.3382   -0.6214    0.7074 H   0  0  0  0  0  0  0  0  0  0  0  0
    0.2367   -0.1071   -0.9800 H   0  0  0  0  0  0  0  0  0  0  0  0
    0.4011    1.0977    0.2910 H   0  0  0  0  0  0  0  0  0  0  0  0
    2.5407    0.2274    0.9469 H   0  0  0  0  0  0  0  0  0  0  0  0
    2.4143   -2.1270    0.2495 H   0  0  0  0  0  0  0  0  0  0  0  0
    3.8948   -1.3558   -0.2542 H   0  0  0  0  0  0  0  0  0  0  0  0
    2.8881   -0.9609   -3.8022 H   0  0  0  0  0  0  0  0  0  0  0  0
    4.2049   -0.6989   -2.6890 H   0  0  0  0  0  0  0  0  0  0  0  0
    1.4890    0.7134   -2.5469 H   0  0  0  0  0  0  0  0  0  0  0  0
    4.1820    1.7586   -3.4963 H   0  0  0  0  0  0  0  0  0  0  0  0
    2.6605    2.6842   -3.3725 H   0  0  0  0  0  0  0  0  0  0  0  0
    2.7938    1.3417   -4.5001 H   0  0  0  0  0  0  0  0  0  0  0  0
    4.5945    0.4305    1.3598 H   0  0  0  0  0  0  0  0  0  0  0  0
    4.8911    0.9403    3.7498 H   0  0  0  0  0  0  0  0  0  0  0  0
    4.6276    3.2661    4.5723 H   0  0  0  0  0  0  0  0  0  0  0  0
    4.0315    5.0798    2.9833 H   0  0  0  0  0  0  0  0  0  0  0  0
    3.5486    4.5423    0.6152 H   0  0  0  0  0  0  0  0  0  0  0  0
  1  2  1  0  0  0  0
  1 19  1  0  0  0  0
  1 20  1  0  0  0  0
  1 21  1  0  0  0  0
  2  3  1  0  0  0  0
  2  8  1  0  0  0  0
  2 22  1  0  0  0  0
  3  4  1  0  0  0  0
  3 23  1  0  0  0  0
  3 24  1  0  0  0  0
  4  5  1  0  0  0  0
  4 17  1  0  0  0  0
  5  6  1  0  0  0  0
  5 25  1  0  0  0  0
  5 26  1  0  0  0  0
  6  7  1  0  0  0  0
  6  8  1  0  0  0  0
  6 27  1  0  0  0  0
  7 28  1  0  0  0  0
  7 29  1  0  0  0  0
  7 30  1  0  0  0  0
  8  9  1  0  0  0  0
  9 10  2  0  0  0  0
  9 11  1  0  0  0  0
 11 12  2  0  0  0  0
 11 16  1  0  0  0  0
 12 13  1  0  0  0  0
 12 31  1  0  0  0  0
 13 14  2  0  0  0  0
 13 32  1  0  0  0  0
 14 15  1  0  0  0  0
 14 33  1  0  0  0  0
 15 16  2  0  0  0  0
 15 34  1  0  0  0  0
 16 35  1  0  0  0  0
 17 18  2  0  0  0  0
M  END
$$$$

 OpenBabel12201709243D

 30 32  0  0  0  0  0  0  0  0999 V2000
    2.7511   -0.6127   -1.2387 C   0  0  0  0  0  0  0  0  0  0  0  0
    2.3771    0.0313    0.0846 C   0  0  0  0  0  0  0  0  0  0  0  0
    2.8990    1.3823    0.2255 N   0  0  0  0  0  0  0  0  0  0  0  0
    4.1377    1.6943    0.7554 C   0  0  0  0  0  0  0  0  0  0  0  0
    5.1916    0.8755    1.1951 C   0  0  0  0  0  0  0  0  0  0  0  0
    6.3362    1.4913    1.7127 C   0  0  0  0  0  0  0  0  0  0  0  0
    6.4317    2.8756    1.7904 C   0  0  0  0  0  0  0  0  0  0  0  0
    5.3786    3.6829    1.3476 C   0  0  0  0  0  0  0  0  0  0  0  0
    4.2123    3.0869    0.8216 C   0  0  0  0  0  0  0  0  0  0  0  0
    2.9879    3.6117    0.3050 C   0  0  0  0  0  0  0  0  0  0  0  0
    2.4816    4.9218    0.1471 C   0  0  0  0  0  0  0  0  0  0  0  0
    1.2250    5.1343   -0.4318 C   0  0  0  0  0  0  0  0  0  0  0  0
    0.6722    6.4229   -0.4506 N   0  0  0  0  0  0  0  0  0  0  0  0
    0.4415    4.0318   -0.7680 C   0  0  0  0  0  0  0  0  0  0  0  0
    0.9132    2.7201   -0.6246 C   0  0  0  0  0  0  0  0  0  0  0  0
    2.1922    2.5319   -0.0777 C   0  0  0  0  0  0  0  0  0  0  0  0
    2.2259   -1.5664   -1.3544 H   0  0  0  0  0  0  0  0  0  0  0  0
    3.8263   -0.8126   -1.2889 H   0  0  0  0  0  0  0  0  0  0  0  0
    2.4884    0.0279   -2.0866 H   0  0  0  0  0  0  0  0  0  0  0  0
    2.7486   -0.5666    0.9238 H   0  0  0  0  0  0  0  0  0  0  0  0
    1.2884    0.0750    0.1926 H   0  0  0  0  0  0  0  0  0  0  0  0
    5.1310   -0.2065    1.1429 H   0  0  0  0  0  0  0  0  0  0  0  0
    7.1625    0.8765    2.0624 H   0  0  0  0  0  0  0  0  0  0  0  0
    7.3280    3.3380    2.1965 H   0  0  0  0  0  0  0  0  0  0  0  0
    5.4585    4.7640    1.4116 H   0  0  0  0  0  0  0  0  0  0  0  0
    3.0776    5.7638    0.4844 H   0  0  0  0  0  0  0  0  0  0  0  0
    1.3671    7.1621   -0.4939 H   0  0  0  0  0  0  0  0  0  0  0  0
   -0.0635    6.5425   -1.1386 H   0  0  0  0  0  0  0  0  0  0  0  0
   -0.5658    4.1810   -1.1494 H   0  0  0  0  0  0  0  0  0  0  0  0
    0.2851    1.8832   -0.9107 H   0  0  0  0  0  0  0  0  0  0  0  0
  1  2  1  0  0  0  0
  1 17  1  0  0  0  0
  1 18  1  0  0  0  0
  1 19  1  0  0  0  0
  2  3  1  0  0  0  0
  2 20  1  0  0  0  0
  2 21  1  0  0  0  0
  3  4  1  0  0  0  0
  3 16  1  0  0  0  0
  4  5  2  0  0  0  0
  4  9  1  0  0  0  0
  5  6  1  0  0  0  0
  5 22  1  0  0  0  0
  6  7  2  0  0  0  0
  6 23  1  0  0  0  0
  7  8  1  0  0  0  0
  7 24  1  0  0  0  0
  8  9  2  0  0  0  0
  8 25  1  0  0  0  0
  9 10  1  0  0  0  0
 10 11  2  0  0  0  0
 10 16  1  0  0  0  0
 11 12  1  0  0  0  0
 11 26  1  0  0  0  0
 12 13  1  0  0  0  0
 12 14  2  0  0  0  0
 13 27  1  0  0  0  0
 13 28  1  0  0  0  0
 14 15  1  0  0  0  0
 14 29  1  0  0  0  0
 15 16  2  0  0  0  0
 15 30  1  0  0  0  0
M  END
$$$$

 OpenBabel12201709243D

 20 21  0  0  0  0  0  0  0  0999 V2000
    1.0275    0.0765    0.0680 C   0  0  0  0  0  0  0  0  0  0  0  0
    2.5328    0.0612    0.0608 C   0  0  0  0  0  0  0  0  0  0  0  0
    3.2111   -1.1697    0.0868 C   0  0  0  0  0  0  0  0  0  0  0  0
    4.6007   -1.2088    0.0900 C   0  0  0  0  0  0  0  0  0  0  0  0
    5.3213   -0.0194    0.0689 C   0  0  0  0  0  0  0  0  0  0  0  0
    4.6531    1.2158    0.0428 C   0  0  0  0  0  0  0  0  0  0  0  0
    5.3672    2.4215    0.0196 C   0  0  0  0  0  0  0  0  0  0  0  0
    4.6855    3.6305   -0.0077 C   0  0  0  0  0  0  0  0  0  0  0  0
    3.3063    3.5919   -0.0089 C   0  0  0  0  0  0  0  0  0  0  0  0
    2.5844    2.4504    0.0150 N   0  0  0  0  0  0  0  0  0  0  0  0
    3.2404    1.2705    0.0392 C   0  0  0  0  0  0  0  0  0  0  0  0
    0.6154   -0.9374    0.0295 H   0  0  0  0  0  0  0  0  0  0  0  0
    0.6467    0.6187   -0.8036 H   0  0  0  0  0  0  0  0  0  0  0  0
    0.6589    0.5516    0.9830 H   0  0  0  0  0  0  0  0  0  0  0  0
    2.6532   -2.1034    0.1044 H   0  0  0  0  0  0  0  0  0  0  0  0
    5.1204   -2.1632    0.1091 H   0  0  0  0  0  0  0  0  0  0  0  0
    6.4080   -0.0598    0.0728 H   0  0  0  0  0  0  0  0  0  0  0  0
    6.4540    2.4232    0.0220 H   0  0  0  0  0  0  0  0  0  0  0  0
    5.2160    4.5752   -0.0280 H   0  0  0  0  0  0  0  0  0  0  0  0
    2.7203    4.5063   -0.0304 H   0  0  0  0  0  0  0  0  0  0  0  0
  1  2  1  0  0  0  0
  1 12  1  0  0  0  0
  1 13  1  0  0  0  0
  1 14  1  0  0  0  0
  2  3  2  0  0  0  0
  2 11  1  0  0  0  0
  3  4  1  0  0  0  0
  3 15  1  0  0  0  0
  4  5  2  0  0  0  0
  4 16  1  0  0  0  0
  5  6  1  0  0  0  0
  5 17  1  0  0  0  0
  6  7  2  0  0  0  0
  6 11  1  0  0  0  0
  7  8  1  0  0  0  0
  7 18  1  0  0  0  0
  8  9  2  0  0  0  0
  8 19  1  0  0  0  0
  9 10  1  0  0  0  0
  9 20  1  0  0  0  0
 10 11  2  0  0  0  0
M  END
$$$$

 OpenBabel12201709243D

 32 33  0  0  0  0  0  0  0  0999 V2000
    0.9180   -0.0230    0.0599 C   0  0  0  0  0  0  0  0  0  0  0  0
    2.4163   -0.0619   -0.0657 C   0  0  0  0  0  0  0  0  0  0  0  0
    3.1185    1.1514   -0.2178 C   0  0  0  0  0  0  0  0  0  0  0  0
    4.5209    1.2041   -0.3155 C   0  0  0  0  0  0  0  0  0  0  0  0
    5.2057   -0.0151   -0.2097 C   0  0  0  0  0  0  0  0  0  0  0  0
    4.5187   -1.2288   -0.0821 C   0  0  0  0  0  0  0  0  0  0  0  0
    3.1223   -1.2730   -0.0787 C   0  0  0  0  0  0  0  0  0  0  0  0
    2.4808   -2.5034    0.1310 N   0  0  0  0  0  0  0  0  0  0  0  0
    5.2292    2.4847   -0.5558 C   0  0  0  0  0  0  0  0  0  0  0  0
    4.7662    3.6997   -0.0339 C   0  0  0  0  0  0  0  0  0  0  0  0
    5.3943    4.9118   -0.3454 C   0  0  0  0  0  0  0  0  0  0  0  0
    6.4906    4.9652   -1.2131 C   0  0  0  0  0  0  0  0  0  0  0  0
    7.1229    6.2017   -1.4150 N   0  0  0  0  0  0  0  0  0  0  0  0
    7.0402    3.7576   -1.6640 C   0  0  0  0  0  0  0  0  0  0  0  0
    8.3052    3.6615   -2.4707 C   0  0  0  0  0  0  0  0  0  0  0  0
    6.3882    2.5425   -1.3497 C   0  0  0  0  0  0  0  0  0  0  0  0
    0.5500    1.0021    0.1747 H   0  0  0  0  0  0  0  0  0  0  0  0
    0.5925   -0.5823    0.9431 H   0  0  0  0  0  0  0  0  0  0  0  0
    0.4535   -0.4490   -0.8349 H   0  0  0  0  0  0  0  0  0  0  0  0
    2.5443    2.0742   -0.2770 H   0  0  0  0  0  0  0  0  0  0  0  0
    6.2928   -0.0425   -0.2211 H   0  0  0  0  0  0  0  0  0  0  0  0
    5.0933   -2.1478    0.0020 H   0  0  0  0  0  0  0  0  0  0  0  0
    3.0123   -3.2962   -0.2154 H   0  0  0  0  0  0  0  0  0  0  0  0
    1.5222   -2.5229   -0.2008 H   0  0  0  0  0  0  0  0  0  0  0  0
    3.9090    3.7243    0.6344 H   0  0  0  0  0  0  0  0  0  0  0  0
    5.0029    5.8263    0.0938 H   0  0  0  0  0  0  0  0  0  0  0  0
    6.4958    6.9931   -1.3051 H   0  0  0  0  0  0  0  0  0  0  0  0
    7.6350    6.2621   -2.2880 H   0  0  0  0  0  0  0  0  0  0  0  0
    8.6957    4.6314   -2.7844 H   0  0  0  0  0  0  0  0  0  0  0  0
    8.1262    3.0779   -3.3805 H   0  0  0  0  0  0  0  0  0  0  0  0
    9.0836    3.1674   -1.8797 H   0  0  0  0  0  0  0  0  0  0  0  0
    6.8041    1.6227   -1.7581 H   0  0  0  0  0  0  0  0  0  0  0  0
  1  2  1  0  0  0  0
  1 17  1  0  0  0  0
  1 18  1  0  0  0  0
  1 19  1  0  0  0  0
  2  3  2  0  0  0  0
  2  7  1  0  0  0  0
  3  4  1  0  0  0  0
  3 20  1  0  0  0  0
  4  5  2  0  0  0  0
  4  9  1  0  0  0  0
  5  6  1  0  0  0  0
  5 21  1  0  0  0  0
  6  7  2  0  0  0  0
  6 22  1  0  0  0  0
  7  8  1  0  0  0  0
  8 23  1  0  0  0  0
  8 24  1  0  0  0  0
  9 10  2  0  0  0  0
  9 16  1  0  0  0  0
 10 11  1  0  0  0  0
 10 25  1  0  0  0  0
 11 12  2  0  0  0  0
 11 26  1  0  0  0  0
 12 13  1  0  0  0  0
 12 14  1  0  0  0  0
 13 27  1  0  0  0  0
 13 28  1  0  0  0  0
 14 15  1  0  0  0  0
 14 16  2  0  0  0  0
 15 29  1  0  0  0  0
 15 30  1  0  0  0  0
 15 31  1  0  0  0  0
 16 32  1  0  0  0  0
M  END
$$$$

 OpenBabel12201709243D

 20 21  0  0  0  0  0  0  0  0999 V2000
    2.4895    1.5229   -0.0432 O   0  0  0  0  0  0  0  0  0  0  0  0
    2.3517    0.1655    0.1250 N   0  0  0  0  0  0  0  0  0  0  0  0
    1.6564   -0.2288    1.0379 O   0  0  0  0  0  0  0  0  0  0  0  0
    2.9724   -0.7669   -0.7867 C   0  0  0  0  0  0  0  0  0  0  0  0
    3.8031   -0.2983   -1.8040 C   0  0  0  0  0  0  0  0  0  0  0  0
    4.3566   -1.2053   -2.7142 C   0  0  0  0  0  0  0  0  0  0  0  0
    4.0962   -2.5680   -2.6414 C   0  0  0  0  0  0  0  0  0  0  0  0
    4.6234   -3.3907   -3.5639 N   0  0  0  0  0  0  0  0  0  0  0  0
    4.3361   -4.7083   -3.4769 C   0  0  0  0  0  0  0  0  0  0  0  0
    3.5470   -5.2622   -2.4870 C   0  0  0  0  0  0  0  0  0  0  0  0
    3.0108   -4.4114   -1.5286 C   0  0  0  0  0  0  0  0  0  0  0  0
    3.2701   -3.0365   -1.5960 C   0  0  0  0  0  0  0  0  0  0  0  0
    2.7177   -2.1363   -0.6685 C   0  0  0  0  0  0  0  0  0  0  0  0
    1.9204    1.8003    0.6941 H   0  0  0  0  0  0  0  0  0  0  0  0
    4.0214    0.7619   -1.9106 H   0  0  0  0  0  0  0  0  0  0  0  0
    4.9985   -0.8384   -3.5123 H   0  0  0  0  0  0  0  0  0  0  0  0
    4.7716   -5.3270   -4.2566 H   0  0  0  0  0  0  0  0  0  0  0  0
    3.3488   -6.3276   -2.4658 H   0  0  0  0  0  0  0  0  0  0  0  0
    2.3849   -4.8215   -0.7402 H   0  0  0  0  0  0  0  0  0  0  0  0
    2.0748   -2.5015    0.1307 H   0  0  0  0  0  0  0  0  0  0  0  0
  1  2  1  0  0  0  0
  1 14  1  0  0  0  0
  2  3  2  0  0  0  0
  2  4  1  0  0  0  0
  4  5  2  0  0  0  0
  4 13  1  0  0  0  0
  5  6  1  0  0  0  0
  5 15  1  0  0  0  0
  6  7  2  0  0  0  0
  6 16  1  0  0  0  0
  7  8  1  0  0  0  0
  7 12  1  0  0  0  0
  8  9  2  0  0  0  0
  9 10  1  0  0  0  0
  9 17  1  0  0  0  0
 10 11  2  0  0  0  0
 10 18  1  0  0  0  0
 11 12  1  0  0  0  0
 11 19  1  0  0  0  0
 12 13  2  0  0  0  0
 13 20  1  0  0  0  0
M  END
$$$$

 OpenBabel12201709243D

 20 19  0  0  0  0  0  0  0  0999 V2000
    2.5716    2.0866   -0.7314 C   0  0  0  0  0  0  0  0  0  0  0  0
    2.6358    0.7146   -0.0787 C   0  0  0  0  0  0  0  0  0  0  0  0
    3.1220    0.8558    1.2667 O   0  0  0  0  0  0  0  0  0  0  0  0
    4.4783    1.0100    1.3693 C   0  0  0  0  0  0  0  0  0  0  0  0
    5.2382    0.7830    0.4295 O   0  0  0  0  0  0  0  0  0  0  0  0
    4.8662    1.5130    2.6041 N   0  0  0  0  0  0  0  0  0  0  0  0
    3.9526    1.6810    3.7319 C   0  0  0  0  0  0  0  0  0  0  0  0
    3.1663    2.9831    3.6848 C   0  0  0  0  0  0  0  0  0  0  0  0
    6.1895    1.9674    2.6790 N   0  0  0  0  0  0  0  0  0  0  0  0
    6.4408    2.6285    3.6912 O   0  0  0  0  0  0  0  0  0  0  0  0
    2.1855    2.0223   -1.7517 H   0  0  0  0  0  0  0  0  0  0  0  0
    3.5602    2.5572   -0.7628 H   0  0  0  0  0  0  0  0  0  0  0  0
    1.9280    2.7537   -0.1480 H   0  0  0  0  0  0  0  0  0  0  0  0
    3.2518    0.0176   -0.6589 H   0  0  0  0  0  0  0  0  0  0  0  0
    1.6306    0.2849   -0.0221 H   0  0  0  0  0  0  0  0  0  0  0  0
    4.5143    1.6139    4.6709 H   0  0  0  0  0  0  0  0  0  0  0  0
    3.2501    0.8397    3.7369 H   0  0  0  0  0  0  0  0  0  0  0  0
    3.8297    3.8517    3.6289 H   0  0  0  0  0  0  0  0  0  0  0  0
    2.5523    3.0807    4.5864 H   0  0  0  0  0  0  0  0  0  0  0  0
    2.4980    3.0145    2.8185 H   0  0  0  0  0  0  0  0  0  0  0  0
  1  2  1  0  0  0  0
  1 11  1  0  0  0  0
  1 12  1  0  0  0  0
  1 13  1  0  0  0  0
  2  3  1  0  0  0  0
  2 14  1  0  0  0  0
  2 15  1  0  0  0  0
  3  4  1  0  0  0  0
  4  5  2  0  0  0  0
  4  6  1  0  0  0  0
  6  7  1  0  0  0  0
  6  9  1  0  0  0  0
  7  8  1  0  0  0  0
  7 16  1  0  0  0  0
  7 17  1  0  0  0  0
  8 18  1  0  0  0  0
  8 19  1  0  0  0  0
  8 20  1  0  0  0  0
  9 10  2  0  0  0  0
M  END
$$$$

 OpenBabel12201709243D

 21 21  0  0  0  0  0  0  0  0999 V2000
    1.0705   -0.0301    0.1543 N   0  0  0  0  0  0  0  0  0  0  0  0
    2.4516   -0.0235   -0.1151 C   0  0  0  0  0  0  0  0  0  0  0  0
    3.1315    1.1953   -0.1387 C   0  0  0  0  0  0  0  0  0  0  0  0
    4.5244    1.2369   -0.2730 C   0  0  0  0  0  0  0  0  0  0  0  0
    5.2792    0.0598   -0.3100 C   0  0  0  0  0  0  0  0  0  0  0  0
    6.6826    0.0781   -0.4852 N   0  0  0  0  0  0  0  0  0  0  0  0
    7.3510    1.3238   -0.3929 O   0  0  0  0  0  0  0  0  0  0  0  0
    8.2469    1.7207   -1.7195 S   0  0  0  0  0  0  0  0  0  0  0  0
    7.3728    1.7937   -2.8714 O   0  0  0  0  0  0  0  0  0  0  0  0
    9.1332    2.8066   -1.3675 O   0  0  0  0  0  0  0  0  0  0  0  0
    9.1492    0.4002   -1.9443 O   0  0  0  0  0  0  0  0  0  0  0  0
    4.6067   -1.1650   -0.2637 C   0  0  0  0  0  0  0  0  0  0  0  0
    3.2126   -1.2037   -0.1418 C   0  0  0  0  0  0  0  0  0  0  0  0
    2.4400   -2.7512   -0.0679 Cl  0  0  0  0  0  0  0  0  0  0  0  0
    0.5723    0.7810   -0.1974 H   0  0  0  0  0  0  0  0  0  0  0  0
    0.6246   -0.9085   -0.1027 H   0  0  0  0  0  0  0  0  0  0  0  0
    2.5842    2.1311   -0.0542 H   0  0  0  0  0  0  0  0  0  0  0  0
    5.0098    2.2088   -0.3184 H   0  0  0  0  0  0  0  0  0  0  0  0
    7.1300   -0.6225    0.1087 H   0  0  0  0  0  0  0  0  0  0  0  0
    8.5662   -0.2661   -2.3610 H   0  0  0  0  0  0  0  0  0  0  0  0
    5.1622   -2.0969   -0.3222 H   0  0  0  0  0  0  0  0  0  0  0  0
  1  2  1  0  0  0  0
  1 15  1  0  0  0  0
  1 16  1  0  0  0  0
  2  3  2  0  0  0  0
  2 13  1  0  0  0  0
  3  4  1  0  0  0  0
  3 17  1  0  0  0  0
  4  5  2  0  0  0  0
  4 18  1  0  0  0  0
  5  6  1  0  0  0  0
  5 12  1  0  0  0  0
  6  7  1  0  0  0  0
  6 19  1  0  0  0  0
  7  8  1  0  0  0  0
  8  9  2  0  0  0  0
  8 10  2  0  0  0  0
  8 11  1  0  0  0  0
 11 20  1  0  0  0  0
 12 13  2  0  0  0  0
 12 21  1  0  0  0  0
 13 14  1  0  0  0  0
M  END
$$$$

 OpenBabel12201709243D

 20 20  0  0  0  0  0  0  0  0999 V2000
    1.0307   -0.0172    0.1386 N   0  0  0  0  0  0  0  0  0  0  0  0
    2.4533   -0.0264    0.1351 C   0  0  0  0  0  0  0  0  0  0  0  0
    3.1366    1.1952    0.0404 C   0  0  0  0  0  0  0  0  0  0  0  0
    4.5304    1.2245   -0.1195 C   0  0  0  0  0  0  0  0  0  0  0  0
    5.2529    0.0358   -0.2327 C   0  0  0  0  0  0  0  0  0  0  0  0
    4.5755   -1.1833   -0.1733 C   0  0  0  0  0  0  0  0  0  0  0  0
    3.1796   -1.2276   -0.0066 C   0  0  0  0  0  0  0  0  0  0  0  0
    2.5499   -2.5835    0.0181 C   0  0  0  0  0  0  0  0  0  0  0  0
    3.1737   -3.6026   -0.2300 O   0  0  0  0  0  0  0  0  0  0  0  0
    1.2426   -2.5943    0.3541 O   0  0  0  0  0  0  0  0  0  0  0  0
    5.2047    2.5064   -0.2179 N   0  0  0  0  0  0  0  0  0  0  0  0
    4.5943    3.4549   -0.6666 O   0  0  0  0  0  0  0  0  0  0  0  0
    6.5107    2.6813    0.2105 O   0  0  0  0  0  0  0  0  0  0  0  0
    0.6744    0.8663    0.5158 H   0  0  0  0  0  0  0  0  0  0  0  0
    0.6896   -0.0766   -0.8288 H   0  0  0  0  0  0  0  0  0  0  0  0
    2.5884    2.1359    0.0834 H   0  0  0  0  0  0  0  0  0  0  0  0
    6.3262    0.0290   -0.4067 H   0  0  0  0  0  0  0  0  0  0  0  0
    5.1391   -2.1106   -0.2779 H   0  0  0  0  0  0  0  0  0  0  0  0
    0.9050   -1.6826    0.5288 H   0  0  0  0  0  0  0  0  0  0  0  0
    6.6901    1.8644    0.6935 H   0  0  0  0  0  0  0  0  0  0  0  0
  1  2  1  0  0  0  0
  1 14  1  0  0  0  0
  1 15  1  0  0  0  0
  2  3  2  0  0  0  0
  2  7  1  0  0  0  0
  3  4  1  0  0  0  0
  3 16  1  0  0  0  0
  4  5  2  0  0  0  0
  4 11  1  0  0  0  0
  5  6  1  0  0  0  0
  5 17  1  0  0  0  0
  6  7  2  0  0  0  0
  6 18  1  0  0  0  0
  7  8  1  0  0  0  0
  8  9  2  0  0  0  0
  8 10  1  0  0  0  0
 10 19  1  0  0  0  0
 11 12  2  0  0  0  0
 11 13  1  0  0  0  0
 13 20  1  0  0  0  0
M  END
$$$$

 OpenBabel12201709243D

 18 18  0  0  0  0  0  0  0  0999 V2000
    1.2006    0.0102    0.2381 O   0  0  0  0  0  0  0  0  0  0  0  0
    2.5388   -0.0022    0.0759 C   0  0  0  0  0  0  0  0  0  0  0  0
    3.1571   -0.9820   -0.3032 O   0  0  0  0  0  0  0  0  0  0  0  0
    3.2093    1.2753    0.4277 C   0  0  0  0  0  0  0  0  0  0  0  0
    2.5989    2.5200    0.2256 C   0  0  0  0  0  0  0  0  0  0  0  0
    3.2919    3.6920    0.5389 C   0  0  0  0  0  0  0  0  0  0  0  0
    4.5996    3.6231    1.0369 C   0  0  0  0  0  0  0  0  0  0  0  0
    5.2106    2.3838    1.2465 C   0  0  0  0  0  0  0  0  0  0  0  0
    4.5161    1.2122    0.9340 C   0  0  0  0  0  0  0  0  0  0  0  0
    5.3094    4.8545    1.3337 N   0  0  0  0  0  0  0  0  0  0  0  0
    4.6726    5.8308    1.6731 O   0  0  0  0  0  0  0  0  0  0  0  0
    6.6847    4.9553    1.1980 O   0  0  0  0  0  0  0  0  0  0  0  0
    0.8428    0.7833    0.7108 H   0  0  0  0  0  0  0  0  0  0  0  0
    1.6043    2.6013   -0.2048 H   0  0  0  0  0  0  0  0  0  0  0  0
    2.8156    4.6603    0.3813 H   0  0  0  0  0  0  0  0  0  0  0  0
    6.2125    2.3025    1.6638 H   0  0  0  0  0  0  0  0  0  0  0  0
    4.9954    0.2440    1.0813 H   0  0  0  0  0  0  0  0  0  0  0  0
    6.9119    4.1458    0.7227 H   0  0  0  0  0  0  0  0  0  0  0  0
  1  2  1  0  0  0  0
  1 13  1  0  0  0  0
  2  3  2  0  0  0  0
  2  4  1  0  0  0  0
  4  5  2  0  0  0  0
  4  9  1  0  0  0  0
  5  6  1  0  0  0  0
  5 14  1  0  0  0  0
  6  7  2  0  0  0  0
  6 15  1  0  0  0  0
  7  8  1  0  0  0  0
  7 10  1  0  0  0  0
  8  9  2  0  0  0  0
  8 16  1  0  0  0  0
  9 17  1  0  0  0  0
 10 11  2  0  0  0  0
 10 12  1  0  0  0  0
 12 18  1  0  0  0  0
M  END
$$$$

 OpenBabel12201709243D

 22 22  0  0  0  0  0  0  0  0999 V2000
    1.0904   -0.1618    0.0222 N   0  0  0  0  0  0  0  0  0  0  0  0
    2.5527   -0.1108    0.0072 C   0  0  0  0  0  0  0  0  0  0  0  0
    3.0585    1.1872    0.6436 C   0  0  0  0  0  0  0  0  0  0  0  0
    4.5657    1.2781    0.6477 C   0  0  0  0  0  0  0  0  0  0  0  0
    5.3067    0.7661    1.7270 C   0  0  0  0  0  0  0  0  0  0  0  0
    6.7013    0.8734    1.7533 C   0  0  0  0  0  0  0  0  0  0  0  0
    7.3528    1.4898    0.6923 C   0  0  0  0  0  0  0  0  0  0  0  0
    8.7111    1.6431    0.6689 O   0  0  0  0  0  0  0  0  0  0  0  0
    6.6266    1.9797   -0.3896 C   0  0  0  0  0  0  0  0  0  0  0  0
    7.2765    2.5813   -1.4295 O   0  0  0  0  0  0  0  0  0  0  0  0
    5.2426    1.8764   -0.4247 C   0  0  0  0  0  0  0  0  0  0  0  0
    0.7809   -1.0155   -0.4414 H   0  0  0  0  0  0  0  0  0  0  0  0
    0.7167    0.6101   -0.5296 H   0  0  0  0  0  0  0  0  0  0  0  0
    2.9047   -0.1933   -1.0275 H   0  0  0  0  0  0  0  0  0  0  0  0
    2.9413   -0.9775    0.5536 H   0  0  0  0  0  0  0  0  0  0  0  0
    2.6911    1.2708    1.6747 H   0  0  0  0  0  0  0  0  0  0  0  0
    2.6489    2.0545    0.1094 H   0  0  0  0  0  0  0  0  0  0  0  0
    4.7947    0.2892    2.5613 H   0  0  0  0  0  0  0  0  0  0  0  0
    7.2486    0.4793    2.6028 H   0  0  0  0  0  0  0  0  0  0  0  0
    9.0668    1.3013    1.5073 H   0  0  0  0  0  0  0  0  0  0  0  0
    8.2203    2.5513   -1.1750 H   0  0  0  0  0  0  0  0  0  0  0  0
    4.7002    2.2735   -1.2777 H   0  0  0  0  0  0  0  0  0  0  0  0
  1  2  1  0  0  0  0
  1 12  1  0  0  0  0
  1 13  1  0  0  0  0
  2  3  1  0  0  0  0
  2 14  1  0  0  0  0
  2 15  1  0  0  0  0
  3  4  1  0  0  0  0
  3 16  1  0  0  0  0
  3 17  1  0  0  0  0
  4  5  2  0  0  0  0
  4 11  1  0  0  0  0
  5  6  1  0  0  0  0
  5 18  1  0  0  0  0
  6  7  2  0  0  0  0
  6 19  1  0  0  0  0
  7  8  1  0  0  0  0
  7  9  1  0  0  0  0
  8 20  1  0  0  0  0
  9 10  1  0  0  0  0
  9 11  2  0  0  0  0
 10 21  1  0  0  0  0
 11 22  1  0  0  0  0
M  END
$$$$

 OpenBabel12201709243D

 19 19  0  0  0  0  0  0  0  0999 V2000
-3105036184601417870297958976925005110513772034233393222278104076052101905372753772661756817657292955900975461394262146412343160088229628782888574550082362278408909952041699811100530571263196889650525998387432937501785693707632115712.000026867906678284281782241510187399432550439186843134860398086303323238782922959343403607005712909390716684188781593430936131475469988739866574301452996444160.0000   -1.0472 C   0  0  0  0  0  0  0  0  0  0  0  0
    0.0000-3105036184601417870297958976925005110513772034233393222278104076052101905372753772661756817657292955900975461394262146412343160088229628782888574550082362278408909952041699811100530571263196889650525998387432937501785693707632115712.0000-3105036184601417870297958976925005110513772034233393222278104076052101905372753772661756817657292955900975461394262146412343160088229628782888574550082362278408909952041699811100530571263196889650525998387432937501785693707632115712.0000 C   0  0  0  0  0  0  0  0  0  0  0  0
    0.0000    0.0000    0.0000 O   0  0  0  0  0  0  0  0  0  0  0  0
    0.0000    0.0000    0.0000 O   0  0  0  0  0  0  0  0  0  0  0  0
    0.0000    0.0000922575859723259277754157836426694643919825587039743613992055835546398207297281594018355903007421736395468289124066579166628844617701416501248.0000 Hg  0  0  0  0  0  0  0  0  0  0  0  0
    0.0000    0.0000    0.0000 C   0  0  0  0  0  0  0  0  0  0  0  0
    0.0000    0.0000-3105036184601417870297958976925005110513772034233393222278104076052101905372753772661756817657292955900975461394262146412343160088229628782888574550082362278408909952041699811100530571263196889650525998387432937501785693707632115712.0000 C   0  0  0  0  0  0  0  0  0  0  0  0
   -0.0000    0.0000    0.0000 C   0  0  0  0  0  0  0  0  0  0  0  0
-3105036184601417870297958976925005110513772034233393222278104076052101905372753772661756817657292955900975461394262146412343160088229628782888574550082362278408909952041699811100530571263196889650525998387432937501785693707632115712.0000   -2.0039    0.0000 C   0  0  0  0  0  0  0  0  0  0  0  0
    0.0000    0.000026867906678284281782241510187399432550439186843134860398086303323238782922959343403607005712909390716684188781593430936131475469988739866574301452996444160.0000 C   0  0  0  0  0  0  0  0  0  0  0  0
    0.0000    0.0000-3105036184601418559754491864673417451604797963097617673292242711691146017531428299686617745684270471983475704370335625635454854005220980863771598446173902226297847570925026576431607593410687263828278071801380135684734785219968630784.0000 C   0  0  0  0  0  0  0  0  0  0  0  0
    0.0000    0.0000    0.0000 H   0  0  0  0  0  0  0  0  0  0  0  0
969092811239445192395695485322011129907662604623675282880470145148160960722579845071298422781120797157460028821587038137332926882365105504256.0000    0.0000714114042795212013568.0000 H   0  0  0  0  0  0  0  0  0  0  0  0
    0.0000    0.0000    0.0000 H   0  0  0  0  0  0  0  0  0  0  0  0
1295420386241683426439167739003937851401234469903283244348257087430111454997173999521765467851813883184219628181121194389232219586560.000030809198305022220.0000    0.0000 H   0  0  0  0  0  0  0  0  0  0  0  0
    0.0000-3105036184601417870297958976925005110513772034233393222278104076052101905372753772661756817657292955900975461394262146412343160088229628782888574550082362278408909952041699811100530571263196889650525998387432937501785693707632115712.0000-3105036184601417870297958976925005110513772034233393222278104076052101905372753772661756817657292955900975461394262146412343160088229628782888574550082362278408909952041699811100530571263196889650525998387432937501785693707632115712.0000 H   0  0  0  0  0  0  0  0  0  0  0  0
    0.0000    0.0000-3105036184601422007037156303415479157059927607418739928362935889886366578324800934810922385819158052395976919250703021751013323590177741268186717926631601965742535665341660403086992704148139134717038438871116126599480242781651206144.0000 H   0  0  0  0  0  0  0  0  0  0  0  0
26867906678284281782241510187399432550439186843134860398086303323238782922959343403607005712909390716684188781593430936131475469988739866574301452996444160.0000-3105036184604560413174861334188455803409955797368440944722005318815165124611247951977866764620811259937082946337180445355444033734812413447711492935321444756186576822245096190149597519524322391844476619158762255383744806937467813888.0000    0.0000 H   0  0  0  0  0  0  0  0  0  0  0  0
3111091047715019829390539225608752934205048095532578859774245856116096052379916913395158404737991381197852712242888662333680867278145540778526332241216332511061888795858578213558032486668905534726727219988630937459491186627760357376.0000-3105036184601417870297958976925005110513772034233393222278104076052101905372753772661756817657292955900975461394262146412343160088229628782888574550082362278408909952041699811100530571263196889650525998387432937501785693707632115712.0000    0.0000 H   0  0  0  0  0  0  0  0  0  0  0  0
  1  2  1  0  0  0  0
  1 12  1  0  0  0  0
  1 13  1  0  0  0  0
  1 14  1  0  0  0  0
  2  3  2  0  0  0  0
  2  4  1  0  0  0  0
  4  5  1  0  0  0  0
  5  6  1  0  0  0  0
  6  7  2  0  0  0  0
  6 11  1  0  0  0  0
  7  8  1  0  0  0  0
  7 15  1  0  0  0  0
  8  9  2  0  0  0  0
  8 16  1  0  0  0  0
  9 10  1  0  0  0  0
  9 17  1  0  0  0  0
 10 11  2  0  0  0  0
 10 18  1  0  0  0  0
 11 19  1  0  0  0  0
M  END
$$$$

 OpenBabel12201709243D

 26 26  0  0  0  0  0  0  0  0999 V2000
    1.0046    0.2127   -0.0318 C   0  0  0  0  0  0  0  0  0  0  0  0
    2.5215    0.1626   -0.0802 C   0  0  0  0  0  0  0  0  0  0  0  0
    3.0308    1.3219    0.5810 O   0  0  0  0  0  0  0  0  0  0  0  0
    4.3870    1.4804    0.5140 C   0  0  0  0  0  0  0  0  0  0  0  0
    4.8402    2.7977    0.5001 C   0  0  0  0  0  0  0  0  0  0  0  0
    6.2093    3.0810    0.4262 C   0  0  0  0  0  0  0  0  0  0  0  0
    7.1460    2.0481    0.3825 C   0  0  0  0  0  0  0  0  0  0  0  0
    8.5385    2.2530    0.2709 N   0  0  0  0  0  0  0  0  0  0  0  0
    9.1953    3.4641    0.1386 C   0  0  0  0  0  0  0  0  0  0  0  0
    8.6834    4.5804    0.1216 O   0  0  0  0  0  0  0  0  0  0  0  0
   10.6893    3.3262   -0.0091 C   0  0  0  0  0  0  0  0  0  0  0  0
    6.6882    0.7258    0.4433 C   0  0  0  0  0  0  0  0  0  0  0  0
    5.3170    0.4430    0.5090 C   0  0  0  0  0  0  0  0  0  0  0  0
    0.5728   -0.6610   -0.5285 H   0  0  0  0  0  0  0  0  0  0  0  0
    0.6273    1.1186   -0.5171 H   0  0  0  0  0  0  0  0  0  0  0  0
    0.6550    0.2357    1.0058 H   0  0  0  0  0  0  0  0  0  0  0  0
    2.8522    0.1487   -1.1259 H   0  0  0  0  0  0  0  0  0  0  0  0
    2.8511   -0.7490    0.4281 H   0  0  0  0  0  0  0  0  0  0  0  0
    4.1277    3.6182    0.5306 H   0  0  0  0  0  0  0  0  0  0  0  0
    6.5037    4.1243    0.4041 H   0  0  0  0  0  0  0  0  0  0  0  0
    9.1080    1.4168    0.2547 H   0  0  0  0  0  0  0  0  0  0  0  0
   11.0216    2.2867    0.0400 H   0  0  0  0  0  0  0  0  0  0  0  0
   11.1765    3.8866    0.7940 H   0  0  0  0  0  0  0  0  0  0  0  0
   10.9862    3.7416   -0.9766 H   0  0  0  0  0  0  0  0  0  0  0  0
    7.3859   -0.1074    0.4387 H   0  0  0  0  0  0  0  0  0  0  0  0
    5.0069   -0.5944    0.5731 H   0  0  0  0  0  0  0  0  0  0  0  0
  1  2  1  0  0  0  0
  1 14  1  0  0  0  0
  1 15  1  0  0  0  0
  1 16  1  0  0  0  0
  2  3  1  0  0  0  0
  2 17  1  0  0  0  0
  2 18  1  0  0  0  0
  3  4  1  0  0  0  0
  4  5  2  0  0  0  0
  4 13  1  0  0  0  0
  5  6  1  0  0  0  0
  5 19  1  0  0  0  0
  6  7  2  0  0  0  0
  6 20  1  0  0  0  0
  7  8  1  0  0  0  0
  7 12  1  0  0  0  0
  8  9  1  0  0  0  0
  8 21  1  0  0  0  0
  9 10  2  0  0  0  0
  9 11  1  0  0  0  0
 11 22  1  0  0  0  0
 11 23  1  0  0  0  0
 11 24  1  0  0  0  0
 12 13  2  0  0  0  0
 12 25  1  0  0  0  0
 13 26  1  0  0  0  0
M  END
$$$$

 OpenBabel12201709243D

 14 14  0  0  0  0  0  0  0  0999 V2000
    1.0652    0.0875    0.1876 N   0  0  0  0  0  0  0  0  0  0  0  0
    2.4404    0.1089   -0.0779 C   0  0  0  0  0  0  0  0  0  0  0  0
    3.1358    1.3206   -0.0924 C   0  0  0  0  0  0  0  0  0  0  0  0
    4.5255    1.3447   -0.2366 C   0  0  0  0  0  0  0  0  0  0  0  0
    5.2377    0.1507   -0.3224 C   0  0  0  0  0  0  0  0  0  0  0  0
    4.5612   -1.0642   -0.2437 C   0  0  0  0  0  0  0  0  0  0  0  0
    3.1713   -1.0819   -0.1002 C   0  0  0  0  0  0  0  0  0  0  0  0
    0.5809    0.9258   -0.1172 H   0  0  0  0  0  0  0  0  0  0  0  0
    0.6049   -0.7590   -0.1317 H   0  0  0  0  0  0  0  0  0  0  0  0
    2.5995    2.2601    0.0073 H   0  0  0  0  0  0  0  0  0  0  0  0
    5.0508    2.2954   -0.2666 H   0  0  0  0  0  0  0  0  0  0  0  0
    6.3191    0.1671   -0.4281 H   0  0  0  0  0  0  0  0  0  0  0  0
    5.1145   -1.9986   -0.2781 H   0  0  0  0  0  0  0  0  0  0  0  0
    2.6629   -2.0375   -0.0062 H   0  0  0  0  0  0  0  0  0  0  0  0
  1  2  1  0  0  0  0
  1  8  1  0  0  0  0
  1  9  1  0  0  0  0
  2  3  2  0  0  0  0
  2  7  1  0  0  0  0
  3  4  1  0  0  0  0
  3 10  1  0  0  0  0
  4  5  2  0  0  0  0
  4 11  1  0  0  0  0
  5  6  1  0  0  0  0
  5 12  1  0  0  0  0
  6  7  2  0  0  0  0
  6 13  1  0  0  0  0
  7 14  1  0  0  0  0
M  END
$$$$

 OpenBabel12201709243D

  9  8  0  0  0  0  0  0  0  0999 V2000
    1.0966    0.0056    0.0933 C   0  0  0  0  0  0  0  0  0  0  0  0
    2.5977    0.0435    0.0819 C   0  0  0  0  0  0  0  0  0  0  0  0
    3.4783    1.3940   -0.3233 S   0  0  0  0  0  0  0  0  0  0  0  0
    3.2226   -1.1161    0.4298 N   0  0  0  0  0  0  0  0  0  0  0  0
    0.6563    0.9645   -0.1945 H   0  0  0  0  0  0  0  0  0  0  0  0
    0.7477   -0.2550    1.0977 H   0  0  0  0  0  0  0  0  0  0  0  0
    0.7477   -0.7650   -0.6018 H   0  0  0  0  0  0  0  0  0  0  0  0
    2.7204   -1.9579    0.6824 H   0  0  0  0  0  0  0  0  0  0  0  0
    4.2358   -1.1480    0.4394 H   0  0  0  0  0  0  0  0  0  0  0  0
  1  2  1  0  0  0  0
  1  5  1  0  0  0  0
  1  6  1  0  0  0  0
  1  7  1  0  0  0  0
  2  3  2  0  0  0  0
  2  4  1  0  0  0  0
  4  8  1  0  0  0  0
  4  9  1  0  0  0  0
M  END
$$$$

 OpenBabel12201709243D

  8  7  0  0  0  0  0  0  0  0999 V2000
    1.1849   -0.0216    0.0351 N   0  0  0  0  0  0  0  0  0  0  0  0
    2.5295   -0.0432    0.0899 C   0  0  0  0  0  0  0  0  0  0  0  0
    3.3554   -0.5682    1.4205 S   0  0  0  0  0  0  0  0  0  0  0  0
    3.1509    0.3950   -1.0207 N   0  0  0  0  0  0  0  0  0  0  0  0
    0.6571   -0.3388    0.8391 H   0  0  0  0  0  0  0  0  0  0  0  0
    0.6740    0.2974   -0.7735 H   0  0  0  0  0  0  0  0  0  0  0  0
    2.6535    0.7169   -1.8366 H   0  0  0  0  0  0  0  0  0  0  0  0
    4.1632    0.4041   -1.0439 H   0  0  0  0  0  0  0  0  0  0  0  0
  1  2  1  0  0  0  0
  1  5  1  0  0  0  0
  1  6  1  0  0  0  0
  2  3  2  0  0  0  0
  2  4  1  0  0  0  0
  4  7  1  0  0  0  0
  4  8  1  0  0  0  0
M  END
$$$$

 OpenBabel12201709243D

 18 17  0  0  0  0  0  0  0  0999 V2000
    2.1130    0.6104   -1.3010 C   0  0  0  0  0  0  0  0  0  0  0  0
    2.4884    0.0233   -0.0691 O   0  0  0  0  0  0  0  0  0  0  0  0
    3.0650   -1.5990   -0.2386 P   0  0  0  0  0  0  0  0  0  0  0  0
    4.4812   -1.0649   -0.4869 O   0  0  0  0  0  0  0  0  0  0  0  0
    2.8206   -1.8315    1.3758 O   0  0  0  0  0  0  0  0  0  0  0  0
    3.8873   -1.5532    2.2617 C   0  0  0  0  0  0  0  0  0  0  0  0
    3.6417   -3.2212   -0.4080 O   0  0  0  0  0  0  0  0  0  0  0  0
    2.8663   -4.3096   -0.0816 C   0  0  0  0  0  0  0  0  0  0  0  0
    3.0080   -5.5239   -0.6248 C   0  0  0  0  0  0  0  0  0  0  0  0
    4.1472   -5.8370   -1.8786 Cl  0  0  0  0  0  0  0  0  0  0  0  0
    1.9961   -6.8238   -0.1077 Cl  0  0  0  0  0  0  0  0  0  0  0  0
    1.7020    1.6042   -1.1065 H   0  0  0  0  0  0  0  0  0  0  0  0
    1.3450   -0.0023   -1.7816 H   0  0  0  0  0  0  0  0  0  0  0  0
    2.9802    0.7025   -1.9586 H   0  0  0  0  0  0  0  0  0  0  0  0
    3.6884   -2.0699    3.2066 H   0  0  0  0  0  0  0  0  0  0  0  0
    3.9383   -0.4788    2.4513 H   0  0  0  0  0  0  0  0  0  0  0  0
    4.8383   -1.9179    1.8697 H   0  0  0  0  0  0  0  0  0  0  0  0
    2.1387   -4.0909    0.6893 H   0  0  0  0  0  0  0  0  0  0  0  0
  1  2  1  0  0  0  0
  1 12  1  0  0  0  0
  1 13  1  0  0  0  0
  1 14  1  0  0  0  0
  2  3  1  0  0  0  0
  3  4  2  0  0  0  0
  3  5  1  0  0  0  0
  3  7  1  0  0  0  0
  5  6  1  0  0  0  0
  6 15  1  0  0  0  0
  6 16  1  0  0  0  0
  6 17  1  0  0  0  0
  7  8  1  0  0  0  0
  8  9  2  0  0  0  0
  8 18  1  0  0  0  0
  9 10  1  0  0  0  0
  9 11  1  0  0  0  0
M  END
$$$$

 OpenBabel12201709243D

 11 10  0  0  0  0  0  0  0  0999 V2000
    1.1344    0.0758    0.0183 C   0  0  0  0  0  0  0  0  0  0  0  0
    2.5426   -0.3002    0.1196 N   0  0  0  0  0  0  0  0  0  0  0  0
    3.2371    0.4873    1.1419 C   0  0  0  0  0  0  0  0  0  0  0  0
    3.1220   -0.3587   -1.0626 N   0  0  0  0  0  0  0  0  0  0  0  0
    4.3504   -0.5098   -0.9797 O   0  0  0  0  0  0  0  0  0  0  0  0
    0.6705    0.1993    1.0010 H   0  0  0  0  0  0  0  0  0  0  0  0
    0.5733   -0.7199   -0.4766 H   0  0  0  0  0  0  0  0  0  0  0  0
    0.9783    1.0078   -0.5473 H   0  0  0  0  0  0  0  0  0  0  0  0
    2.6189    0.6093    2.0444 H   0  0  0  0  0  0  0  0  0  0  0  0
    3.4980    1.4934    0.8012 H   0  0  0  0  0  0  0  0  0  0  0  0
    4.1470   -0.0224    1.4776 H   0  0  0  0  0  0  0  0  0  0  0  0
  1  2  1  0  0  0  0
  1  6  1  0  0  0  0
  1  7  1  0  0  0  0
  1  8  1  0  0  0  0
  2  3  1  0  0  0  0
  2  4  1  0  0  0  0
  3  9  1  0  0  0  0
  3 10  1  0  0  0  0
  3 11  1  0  0  0  0
  4  5  2  0  0  0  0
M  END
$$$$

 OpenBabel12201709243D

 23 22  0  0  0  0  0  0  0  0999 V2000
    2.4395    2.6541    1.4850 C   0  0  0  0  0  0  0  0  0  0  0  0
    2.2776    1.2531    2.0613 C   0  0  0  0  0  0  0  0  0  0  0  0
    3.0848    0.2018    1.2852 C   0  0  0  0  0  0  0  0  0  0  0  0
    4.5343    0.4151    1.4110 N   0  0  0  0  0  0  0  0  0  0  0  0
    5.2549    0.1127    0.1614 C   0  0  0  0  0  0  0  0  0  0  0  0
    5.6148    1.4057   -0.5873 C   0  0  0  0  0  0  0  0  0  0  0  0
    6.5206    2.3397    0.2083 C   0  0  0  0  0  0  0  0  0  0  0  0
    5.0420   -0.1016    2.5100 N   0  0  0  0  0  0  0  0  0  0  0  0
    6.2060    0.2700    2.6931 O   0  0  0  0  0  0  0  0  0  0  0  0
    1.8102    3.3641    2.0310 H   0  0  0  0  0  0  0  0  0  0  0  0
    2.1358    2.6768    0.4316 H   0  0  0  0  0  0  0  0  0  0  0  0
    3.4730    2.9986    1.5511 H   0  0  0  0  0  0  0  0  0  0  0  0
    1.2163    0.9799    2.0168 H   0  0  0  0  0  0  0  0  0  0  0  0
    2.5584    1.2574    3.1219 H   0  0  0  0  0  0  0  0  0  0  0  0
    2.7619    0.2630    0.2375 H   0  0  0  0  0  0  0  0  0  0  0  0
    2.8027   -0.8053    1.6267 H   0  0  0  0  0  0  0  0  0  0  0  0
    4.6573   -0.5273   -0.5013 H   0  0  0  0  0  0  0  0  0  0  0  0
    6.1798   -0.4524    0.3356 H   0  0  0  0  0  0  0  0  0  0  0  0
    4.7038    1.9447   -0.8731 H   0  0  0  0  0  0  0  0  0  0  0  0
    6.1276    1.1370   -1.5187 H   0  0  0  0  0  0  0  0  0  0  0  0
    6.0200    2.7182    1.1053 H   0  0  0  0  0  0  0  0  0  0  0  0
    6.8026    3.2039   -0.4005 H   0  0  0  0  0  0  0  0  0  0  0  0
    7.4386    1.8283    0.5162 H   0  0  0  0  0  0  0  0  0  0  0  0
  1  2  1  0  0  0  0
  1 10  1  0  0  0  0
  1 11  1  0  0  0  0
  1 12  1  0  0  0  0
  2  3  1  0  0  0  0
  2 13  1  0  0  0  0
  2 14  1  0  0  0  0
  3  4  1  0  0  0  0
  3 15  1  0  0  0  0
  3 16  1  0  0  0  0
  4  5  1  0  0  0  0
  4  8  1  0  0  0  0
  5  6  1  0  0  0  0
  5 17  1  0  0  0  0
  5 18  1  0  0  0  0
  6  7  1  0  0  0  0
  6 19  1  0  0  0  0
  6 20  1  0  0  0  0
  7 21  1  0  0  0  0
  7 22  1  0  0  0  0
  7 23  1  0  0  0  0
  8  9  2  0  0  0  0
M  END
$$$$

 OpenBabel12201709243D

 21 21  0  0  0  0  0  0  0  0999 V2000
    0.9184    0.0305    0.1224 C   0  0  0  0  0  0  0  0  0  0  0  0
    2.4150    0.0167    0.0260 C   0  0  0  0  0  0  0  0  0  0  0  0
    3.1334    1.2111   -0.0520 C   0  0  0  0  0  0  0  0  0  0  0  0
    4.5255    1.1982   -0.1809 C   0  0  0  0  0  0  0  0  0  0  0  0
    5.2247   -0.0069   -0.2482 C   0  0  0  0  0  0  0  0  0  0  0  0
    6.6218   -0.0879   -0.4231 N   0  0  0  0  0  0  0  0  0  0  0  0
    7.4950    0.9523   -0.6093 C   0  0  0  0  0  0  0  0  0  0  0  0
    7.2590    2.1507   -0.6506 O   0  0  0  0  0  0  0  0  0  0  0  0
    8.7768    0.5235   -0.7889 N   0  0  0  0  0  0  0  0  0  0  0  0
    4.5078   -1.2054   -0.1491 C   0  0  0  0  0  0  0  0  0  0  0  0
    3.1133   -1.1947   -0.0147 C   0  0  0  0  0  0  0  0  0  0  0  0
    0.5344    1.0516    0.2221 H   0  0  0  0  0  0  0  0  0  0  0  0
    0.5853   -0.5370    0.9967 H   0  0  0  0  0  0  0  0  0  0  0  0
    0.4811   -0.4055   -0.7815 H   0  0  0  0  0  0  0  0  0  0  0  0
    2.6199    2.1697   -0.0226 H   0  0  0  0  0  0  0  0  0  0  0  0
    5.0323    2.1557   -0.2425 H   0  0  0  0  0  0  0  0  0  0  0  0
    7.0147   -1.0109   -0.5271 H   0  0  0  0  0  0  0  0  0  0  0  0
    9.0961   -0.2547   -0.2321 H   0  0  0  0  0  0  0  0  0  0  0  0
    9.4295    1.2968   -0.8394 H   0  0  0  0  0  0  0  0  0  0  0  0
    5.0168   -2.1645   -0.1851 H   0  0  0  0  0  0  0  0  0  0  0  0
    2.5757   -2.1376    0.0477 H   0  0  0  0  0  0  0  0  0  0  0  0
  1  2  1  0  0  0  0
  1 12  1  0  0  0  0
  1 13  1  0  0  0  0
  1 14  1  0  0  0  0
  2  3  2  0  0  0  0
  2 11  1  0  0  0  0
  3  4  1  0  0  0  0
  3 15  1  0  0  0  0
  4  5  2  0  0  0  0
  4 16  1  0  0  0  0
  5  6  1  0  0  0  0
  5 10  1  0  0  0  0
  6  7  1  0  0  0  0
  6 17  1  0  0  0  0
  7  8  2  0  0  0  0
  7  9  1  0  0  0  0
  9 18  1  0  0  0  0
  9 19  1  0  0  0  0
 10 11  2  0  0  0  0
 10 20  1  0  0  0  0
 11 21  1  0  0  0  0
M  END
$$$$

 OpenBabel12201709243D

 16 16  0  0  0  0  0  0  0  0999 V2000
    1.0839    0.1080    0.2494 N   0  0  0  0  0  0  0  0  0  0  0  0
    2.4560    0.1311   -0.0264 C   0  0  0  0  0  0  0  0  0  0  0  0
    3.1502    1.3410   -0.0473 C   0  0  0  0  0  0  0  0  0  0  0  0
    4.5411    1.3647   -0.2041 C   0  0  0  0  0  0  0  0  0  0  0  0
    5.2640    0.1790   -0.3378 C   0  0  0  0  0  0  0  0  0  0  0  0
    6.6633    0.2040   -0.3694 N   0  0  0  0  0  0  0  0  0  0  0  0
    4.5836   -1.0298   -0.1878 C   0  0  0  0  0  0  0  0  0  0  0  0
    3.1922   -1.0537   -0.0360 C   0  0  0  0  0  0  0  0  0  0  0  0
    0.5937    0.9440   -0.0522 H   0  0  0  0  0  0  0  0  0  0  0  0
    0.6219   -0.7406   -0.0619 H   0  0  0  0  0  0  0  0  0  0  0  0
    2.6176    2.2803    0.0715 H   0  0  0  0  0  0  0  0  0  0  0  0
    5.0539    2.3224   -0.2064 H   0  0  0  0  0  0  0  0  0  0  0  0
    7.0440    1.0460   -0.7898 H   0  0  0  0  0  0  0  0  0  0  0  0
    7.0764   -0.6385   -0.7564 H   0  0  0  0  0  0  0  0  0  0  0  0
    5.1308   -1.9682   -0.1741 H   0  0  0  0  0  0  0  0  0  0  0  0
    2.6931   -2.0105    0.0890 H   0  0  0  0  0  0  0  0  0  0  0  0
  1  2  1  0  0  0  0
  1  9  1  0  0  0  0
  1 10  1  0  0  0  0
  2  3  2  0  0  0  0
  2  8  1  0  0  0  0
  3  4  1  0  0  0  0
  3 11  1  0  0  0  0
  4  5  2  0  0  0  0
  4 12  1  0  0  0  0
  5  6  1  0  0  0  0
  5  7  1  0  0  0  0
  6 13  1  0  0  0  0
  6 14  1  0  0  0  0
  7  8  2  0  0  0  0
  7 15  1  0  0  0  0
  8 16  1  0  0  0  0
M  END
$$$$

 OpenBabel12201709243D

 18 18  0  0  1  0  0  0  0  0999 V2000
    0.9595    0.1547    0.0879 C   0  0  0  0  0  0  0  0  0  0  0  0
    2.4819    0.1241   -0.0225 C   0  0  3  0  0  0  0  0  0  0  0  0
    3.0037   -1.2523   -0.4111 C   0  0  0  0  0  0  0  0  0  0  0  0
    2.6595   -1.5757   -1.7872 N   0  0  0  0  0  0  0  0  0  0  0  0
    2.4717   -2.8955   -2.2000 N   0  0  0  0  0  0  0  0  0  0  0  0
    2.3945   -3.7079   -1.2728 O   0  0  0  0  0  0  0  0  0  0  0  0
    2.8268   -0.6251   -2.7866 C   0  0  0  0  0  0  0  0  0  0  0  0
    2.7648   -0.8295   -3.9971 O   0  0  0  0  0  0  0  0  0  0  0  0
    3.0648    0.6571   -2.3372 N   0  0  0  0  0  0  0  0  0  0  0  0
    2.9470    1.1235   -1.0549 C   0  0  0  0  0  0  0  0  0  0  0  0
    3.1334    2.3062   -0.7870 O   0  0  0  0  0  0  0  0  0  0  0  0
    0.6097   -0.5688    0.8320 H   0  0  0  0  0  0  0  0  0  0  0  0
    0.4720   -0.0749   -0.8660 H   0  0  0  0  0  0  0  0  0  0  0  0
    0.6160    1.1481    0.3955 H   0  0  0  0  0  0  0  0  0  0  0  0
    2.9192    0.4037    0.9430 H   0  0  0  0  0  0  0  0  0  0  0  0
    2.6106   -2.0003    0.2859 H   0  0  0  0  0  0  0  0  0  0  0  0
    4.0995   -1.2686   -0.3445 H   0  0  0  0  0  0  0  0  0  0  0  0
    3.2484    1.3461   -3.0536 H   0  0  0  0  0  0  0  0  0  0  0  0
  1  2  1  0  0  0  0
  1 12  1  0  0  0  0
  1 13  1  0  0  0  0
  1 14  1  0  0  0  0
  2  3  1  0  0  0  0
  2 10  1  0  0  0  0
  2 15  1  0  0  0  0
  3  4  1  0  0  0  0
  3 16  1  0  0  0  0
  3 17  1  0  0  0  0
  4  5  1  0  0  0  0
  4  7  1  0  0  0  0
  5  6  2  0  0  0  0
  7  8  2  0  0  0  0
  7  9  1  0  0  0  0
  9 10  1  0  0  0  0
  9 18  1  0  0  0  0
 10 11  2  0  0  0  0
M  END
$$$$

 OpenBabel12201709243D

 21 20  0  0  0  0  0  0  0  0999 V2000
    0.9015   -0.0144    0.0702 C   0  0  0  0  0  0  0  0  0  0  0  0
    2.4215   -0.0270    0.0656 C   0  0  0  0  0  0  0  0  0  0  0  0
    2.9743   -1.4256   -0.2101 C   0  0  0  0  0  0  0  0  0  0  0  0
    4.5034   -1.4212   -0.2098 C   0  0  0  0  0  0  0  0  0  0  0  0
    5.0725   -2.8112   -0.4840 C   0  0  0  0  0  0  0  0  0  0  0  0
    6.5867   -2.8115   -0.4845 C   0  0  0  0  0  0  0  0  0  0  0  0
    7.2894   -1.8279   -0.2911 O   0  0  0  0  0  0  0  0  0  0  0  0
    7.1450   -4.0329   -0.7252 N   0  0  0  0  0  0  0  0  0  0  0  0
    0.5325    0.9968    0.2691 H   0  0  0  0  0  0  0  0  0  0  0  0
    0.5057   -0.6787    0.8449 H   0  0  0  0  0  0  0  0  0  0  0  0
    0.5032   -0.3370   -0.8970 H   0  0  0  0  0  0  0  0  0  0  0  0
    2.7862    0.3325    1.0349 H   0  0  0  0  0  0  0  0  0  0  0  0
    2.7838    0.6728   -0.6965 H   0  0  0  0  0  0  0  0  0  0  0  0
    2.6067   -1.7826   -1.1798 H   0  0  0  0  0  0  0  0  0  0  0  0
    2.6074   -2.1237    0.5522 H   0  0  0  0  0  0  0  0  0  0  0  0
    4.8702   -1.0584    0.7585 H   0  0  0  0  0  0  0  0  0  0  0  0
    4.8695   -0.7180   -0.9684 H   0  0  0  0  0  0  0  0  0  0  0  0
    4.7286   -3.1716   -1.4605 H   0  0  0  0  0  0  0  0  0  0  0  0
    4.7291   -3.5153    0.2829 H   0  0  0  0  0  0  0  0  0  0  0  0
    6.6022   -4.8683   -0.8888 H   0  0  0  0  0  0  0  0  0  0  0  0
    8.1549   -4.0925   -0.7368 H   0  0  0  0  0  0  0  0  0  0  0  0
  1  2  1  0  0  0  0
  1  9  1  0  0  0  0
  1 10  1  0  0  0  0
  1 11  1  0  0  0  0
  2  3  1  0  0  0  0
  2 12  1  0  0  0  0
  2 13  1  0  0  0  0
  3  4  1  0  0  0  0
  3 14  1  0  0  0  0
  3 15  1  0  0  0  0
  4  5  1  0  0  0  0
  4 16  1  0  0  0  0
  4 17  1  0  0  0  0
  5  6  1  0  0  0  0
  5 18  1  0  0  0  0
  5 19  1  0  0  0  0
  6  7  2  0  0  0  0
  6  8  1  0  0  0  0
  8 20  1  0  0  0  0
  8 21  1  0  0  0  0
M  END
$$$$

 OpenBabel12201709243D

 22 21  0  0  0  0  0  0  0  0999 V2000
    1.1615   -0.0104    0.1264 N   0  0  0  0  0  0  0  0  0  0  0  0
    2.5189    0.0739    0.0202 C   0  0  0  0  0  0  0  0  0  0  0  0
    3.0411    0.7669   -0.8435 O   0  0  0  0  0  0  0  0  0  0  0  0
    3.2721   -0.7484    1.0437 C   0  0  0  0  0  0  0  0  0  0  0  0
    4.7851   -0.6177    0.8815 C   0  0  0  0  0  0  0  0  0  0  0  0
    5.5321   -1.4537    1.9198 C   0  0  0  0  0  0  0  0  0  0  0  0
    7.0451   -1.3217    1.7585 C   0  0  0  0  0  0  0  0  0  0  0  0
    7.7984   -2.1454    2.7808 C   0  0  0  0  0  0  0  0  0  0  0  0
    7.2763   -2.8407    3.6429 O   0  0  0  0  0  0  0  0  0  0  0  0
    9.1557   -2.0595    2.6756 N   0  0  0  0  0  0  0  0  0  0  0  0
    0.6038    0.5185   -0.5315 H   0  0  0  0  0  0  0  0  0  0  0  0
    0.6949   -0.5702    0.8255 H   0  0  0  0  0  0  0  0  0  0  0  0
    2.9721   -1.7967    0.9297 H   0  0  0  0  0  0  0  0  0  0  0  0
    2.9719   -0.4117    2.0429 H   0  0  0  0  0  0  0  0  0  0  0  0
    5.0764    0.4359    0.9767 H   0  0  0  0  0  0  0  0  0  0  0  0
    5.0766   -0.9354   -0.1274 H   0  0  0  0  0  0  0  0  0  0  0  0
    5.2417   -2.5074    1.8238 H   0  0  0  0  0  0  0  0  0  0  0  0
    5.2399   -1.1368    2.9288 H   0  0  0  0  0  0  0  0  0  0  0  0
    7.3443   -0.2734    1.8745 H   0  0  0  0  0  0  0  0  0  0  0  0
    7.3461   -1.6563    0.7588 H   0  0  0  0  0  0  0  0  0  0  0  0
    9.6225   -1.4980    1.9777 H   0  0  0  0  0  0  0  0  0  0  0  0
    9.7134   -2.5893    3.3326 H   0  0  0  0  0  0  0  0  0  0  0  0
  1  2  1  0  0  0  0
  1 11  1  0  0  0  0
  1 12  1  0  0  0  0
  2  3  2  0  0  0  0
  2  4  1  0  0  0  0
  4  5  1  0  0  0  0
  4 13  1  0  0  0  0
  4 14  1  0  0  0  0
  5  6  1  0  0  0  0
  5 15  1  0  0  0  0
  5 16  1  0  0  0  0
  6  7  1  0  0  0  0
  6 17  1  0  0  0  0
  6 18  1  0  0  0  0
  7  8  1  0  0  0  0
  7 19  1  0  0  0  0
  7 20  1  0  0  0  0
  8  9  2  0  0  0  0
  8 10  1  0  0  0  0
 10 21  1  0  0  0  0
 10 22  1  0  0  0  0
M  END
$$$$

 OpenBabel12201709243D

 26 27  0  0  0  0  0  0  0  0999 V2000
    1.5451   -0.5970   -1.2555 C   0  0  0  0  0  0  0  0  0  0  0  0
    2.8584   -0.4689   -0.6816 N   0  0  0  0  0  0  0  0  0  0  0  0
    3.2360   -1.2589    0.3724 C   0  0  0  0  0  0  0  0  0  0  0  0
    2.4645   -1.9496    1.0241 O   0  0  0  0  0  0  0  0  0  0  0  0
    4.6185   -1.2074    0.5210 O   0  0  0  0  0  0  0  0  0  0  0  0
    5.2454   -2.2808    1.1983 C   0  0  0  0  0  0  0  0  0  0  0  0
    4.8550   -3.5946    0.9124 C   0  0  0  0  0  0  0  0  0  0  0  0
    5.5012   -4.6605    1.5207 C   0  0  0  0  0  0  0  0  0  0  0  0
    6.5629   -4.4196    2.3878 C   0  0  0  0  0  0  0  0  0  0  0  0
    7.0032   -3.1128    2.6512 C   0  0  0  0  0  0  0  0  0  0  0  0
    8.1052   -2.8987    3.4943 C   0  0  0  0  0  0  0  0  0  0  0  0
    8.5781   -1.6109    3.7400 C   0  0  0  0  0  0  0  0  0  0  0  0
    7.9449   -0.5192    3.1574 C   0  0  0  0  0  0  0  0  0  0  0  0
    6.8361   -0.7138    2.3265 C   0  0  0  0  0  0  0  0  0  0  0  0
    6.3460   -2.0096    2.0500 C   0  0  0  0  0  0  0  0  0  0  0  0
    1.4482    0.1103   -2.0822 H   0  0  0  0  0  0  0  0  0  0  0  0
    0.7880   -0.3938   -0.4937 H   0  0  0  0  0  0  0  0  0  0  0  0
    1.4149   -1.6183   -1.6270 H   0  0  0  0  0  0  0  0  0  0  0  0
    3.6131   -0.0845   -1.2319 H   0  0  0  0  0  0  0  0  0  0  0  0
    4.0442   -3.7968    0.2175 H   0  0  0  0  0  0  0  0  0  0  0  0
    5.1823   -5.6773    1.3144 H   0  0  0  0  0  0  0  0  0  0  0  0
    7.0564   -5.2701    2.8551 H   0  0  0  0  0  0  0  0  0  0  0  0
    8.6136   -3.7410    3.9586 H   0  0  0  0  0  0  0  0  0  0  0  0
    9.4424   -1.4659    4.3838 H   0  0  0  0  0  0  0  0  0  0  0  0
    8.3150    0.4852    3.3479 H   0  0  0  0  0  0  0  0  0  0  0  0
    6.3569    0.1585    1.8863 H   0  0  0  0  0  0  0  0  0  0  0  0
  1  2  1  0  0  0  0
  1 16  1  0  0  0  0
  1 17  1  0  0  0  0
  1 18  1  0  0  0  0
  2  3  1  0  0  0  0
  2 19  1  0  0  0  0
  3  4  2  0  0  0  0
  3  5  1  0  0  0  0
  5  6  1  0  0  0  0
  6  7  2  0  0  0  0
  6 15  1  0  0  0  0
  7  8  1  0  0  0  0
  7 20  1  0  0  0  0
  8  9  2  0  0  0  0
  8 21  1  0  0  0  0
  9 10  1  0  0  0  0
  9 22  1  0  0  0  0
 10 11  2  0  0  0  0
 10 15  1  0  0  0  0
 11 12  1  0  0  0  0
 11 23  1  0  0  0  0
 12 13  2  0  0  0  0
 12 24  1  0  0  0  0
 13 14  1  0  0  0  0
 13 25  1  0  0  0  0
 14 15  2  0  0  0  0
 14 26  1  0  0  0  0
M  END
$$$$

 OpenBabel12201709243D

 43 44  0  0  1  0  0  0  0  0999 V2000
    3.1461   -1.4717   -0.5524 C   0  0  0  0  0  0  0  0  0  0  0  0
    2.6031   -0.0935   -0.1238 C   0  0  3  0  0  0  0  0  0  0  0  0
    1.0585   -0.0478   -0.3202 C   0  0  0  0  0  0  0  0  0  0  0  0
    0.7726   -0.2609   -1.7098 O   0  0  0  0  0  0  0  0  0  0  0  0
   -0.5303   -0.4435   -2.0744 C   0  0  0  0  0  0  0  0  0  0  0  0
   -1.6429   -0.2672   -1.2507 C   0  0  0  0  0  0  0  0  0  0  0  0
   -2.9290   -0.4764   -1.7627 C   0  0  0  0  0  0  0  0  0  0  0  0
   -3.1059   -0.8620   -3.0921 C   0  0  0  0  0  0  0  0  0  0  0  0
   -1.9968   -1.0389   -3.9146 C   0  0  0  0  0  0  0  0  0  0  0  0
   -0.7147   -0.8271   -3.4049 C   0  0  0  0  0  0  0  0  0  0  0  0
    3.0538    0.3600    1.2328 N   0  0  0  0  0  0  0  0  0  0  0  0
    2.5325   -0.5044    2.3219 C   0  0  0  0  0  0  0  0  0  0  0  0
    2.8251   -0.0311    3.7547 C   0  0  0  0  0  0  0  0  0  0  0  0
    2.0812   -1.1489    4.9351 Cl  0  0  0  0  0  0  0  0  0  0  0  0
    4.5281    0.4832    1.3179 C   0  0  0  0  0  0  0  0  0  0  0  0
    5.1546    1.4527    0.3369 C   0  0  0  0  0  0  0  0  0  0  0  0
    4.8252    2.8155    0.3677 C   0  0  0  0  0  0  0  0  0  0  0  0
    5.4377    3.7130   -0.5091 C   0  0  0  0  0  0  0  0  0  0  0  0
    6.3827    3.2585   -1.4272 C   0  0  0  0  0  0  0  0  0  0  0  0
    6.7172    1.9067   -1.4697 C   0  0  0  0  0  0  0  0  0  0  0  0
    6.1097    1.0087   -0.5905 C   0  0  0  0  0  0  0  0  0  0  0  0
    2.7068   -1.7976   -1.5007 H   0  0  0  0  0  0  0  0  0  0  0  0
    2.9269   -2.2504    0.1827 H   0  0  0  0  0  0  0  0  0  0  0  0
    4.2284   -1.4414   -0.7063 H   0  0  0  0  0  0  0  0  0  0  0  0
    2.9864    0.6242   -0.8595 H   0  0  0  0  0  0  0  0  0  0  0  0
    0.6804    0.9393   -0.0267 H   0  0  0  0  0  0  0  0  0  0  0  0
    0.5780   -0.8292    0.2788 H   0  0  0  0  0  0  0  0  0  0  0  0
   -1.5477    0.0395   -0.2148 H   0  0  0  0  0  0  0  0  0  0  0  0
   -3.7978   -0.3356   -1.1234 H   0  0  0  0  0  0  0  0  0  0  0  0
   -4.1068   -1.0179   -3.4869 H   0  0  0  0  0  0  0  0  0  0  0  0
   -2.1263   -1.3345   -4.9536 H   0  0  0  0  0  0  0  0  0  0  0  0
    0.1486   -0.9649   -4.0506 H   0  0  0  0  0  0  0  0  0  0  0  0
    2.9161   -1.5249    2.2138 H   0  0  0  0  0  0  0  0  0  0  0  0
    1.4415   -0.5582    2.2363 H   0  0  0  0  0  0  0  0  0  0  0  0
    2.4127    0.9657    3.9386 H   0  0  0  0  0  0  0  0  0  0  0  0
    3.8926   -0.0219    3.9814 H   0  0  0  0  0  0  0  0  0  0  0  0
    5.0037   -0.5020    1.2365 H   0  0  0  0  0  0  0  0  0  0  0  0
    4.8149    0.8695    2.3028 H   0  0  0  0  0  0  0  0  0  0  0  0
    4.0878    3.1809    1.0791 H   0  0  0  0  0  0  0  0  0  0  0  0
    5.1783    4.7680   -0.4750 H   0  0  0  0  0  0  0  0  0  0  0  0
    6.8592    3.9576   -2.1094 H   0  0  0  0  0  0  0  0  0  0  0  0
    7.4537    1.5514   -2.1856 H   0  0  0  0  0  0  0  0  0  0  0  0
    6.3889   -0.0414   -0.6339 H   0  0  0  0  0  0  0  0  0  0  0  0
  1  2  1  0  0  0  0
  1 22  1  0  0  0  0
  1 23  1  0  0  0  0
  1 24  1  0  0  0  0
  2  3  1  0  0  0  0
  2 11  1  0  0  0  0
  2 25  1  0  0  0  0
  3  4  1  0  0  0  0
  3 26  1  0  0  0  0
  3 27  1  0  0  0  0
  4  5  1  0  0  0  0
  5  6  2  0  0  0  0
  5 10  1  0  0  0  0
  6  7  1  0  0  0  0
  6 28  1  0  0  0  0
  7  8  2  0  0  0  0
  7 29  1  0  0  0  0
  8  9  1  0  0  0  0
  8 30  1  0  0  0  0
  9 10  2  0  0  0  0
  9 31  1  0  0  0  0
 10 32  1  0  0  0  0
 11 12  1  0  0  0  0
 11 15  1  0  0  0  0
 12 13  1  0  0  0  0
 12 33  1  0  0  0  0
 12 34  1  0  0  0  0
 13 14  1  0  0  0  0
 13 35  1  0  0  0  0
 13 36  1  0  0  0  0
 15 16  1  0  0  0  0
 15 37  1  0  0  0  0
 15 38  1  0  0  0  0
 16 17  2  0  0  0  0
 16 21  1  0  0  0  0
 17 18  1  0  0  0  0
 17 39  1  0  0  0  0
 18 19  2  0  0  0  0
 18 40  1  0  0  0  0
 19 20  1  0  0  0  0
 19 41  1  0  0  0  0
 20 21  2  0  0  0  0
 20 42  1  0  0  0  0
 21 43  1  0  0  0  0
M  END
$$$$

 OpenBabel12201709243D

  8  7  0  0  0  0  0  0  0  0999 V2000
    1.1856   -0.7155    0.1585 Cl  0  0  0  0  0  0  0  0  0  0  0  0
    2.7902    0.0431    0.1114 C   0  0  0  0  0  0  0  0  0  0  0  0
    3.3135    0.3946   -1.3010 C   0  0  0  0  0  0  0  0  0  0  0  0
    2.0762    1.1823   -2.3344 Cl  0  0  0  0  0  0  0  0  0  0  0  0
    4.6905    1.5433   -1.1444 Cl  0  0  0  0  0  0  0  0  0  0  0  0
    3.9175   -1.0735   -2.1328 Cl  0  0  0  0  0  0  0  0  0  0  0  0
    3.4789   -0.6604    0.5991 H   0  0  0  0  0  0  0  0  0  0  0  0
    2.7433    0.9352    0.7423 H   0  0  0  0  0  0  0  0  0  0  0  0
  1  2  1  0  0  0  0
  2  3  1  0  0  0  0
  2  7  1  0  0  0  0
  2  8  1  0  0  0  0
  3  4  1  0  0  0  0
  3  5  1  0  0  0  0
  3  6  1  0  0  0  0
M  END
$$$$

 OpenBabel12201709243D

 42 44  0  0  0  0  0  0  0  0999 V2000
    3.4343   -0.7876    2.7684 C   0  0  0  0  0  0  0  0  0  0  0  0
    3.6441   -0.3585    1.3424 C   0  0  0  0  0  0  0  0  0  0  0  0
    4.4291    0.7865    1.0767 C   0  0  0  0  0  0  0  0  0  0  0  0
    4.5713    1.2759   -0.2269 C   0  0  0  0  0  0  0  0  0  0  0  0
    3.9613    0.5799   -1.2748 C   0  0  0  0  0  0  0  0  0  0  0  0
    3.2218   -0.5810   -1.0245 C   0  0  0  0  0  0  0  0  0  0  0  0
    3.0142   -1.0361    0.2817 C   0  0  0  0  0  0  0  0  0  0  0  0
    2.3689   -2.2682    0.4746 N   0  0  0  0  0  0  0  0  0  0  0  0
    5.2898    2.5547   -0.5130 C   0  0  0  0  0  0  0  0  0  0  0  0
    6.6097    2.5719   -0.8648 C   0  0  0  0  0  0  0  0  0  0  0  0
    7.4561    1.3763   -0.7755 C   0  0  0  0  0  0  0  0  0  0  0  0
    8.6445    1.3101   -1.3938 C   0  0  0  0  0  0  0  0  0  0  0  0
    9.1406    2.4665   -2.1826 C   0  0  0  0  0  0  0  0  0  0  0  0
   10.1451    2.3906   -2.9928 N   0  0  0  0  0  0  0  0  0  0  0  0
    8.4454    3.7574   -1.9798 C   0  0  0  0  0  0  0  0  0  0  0  0
    7.2747    3.8033   -1.3243 C   0  0  0  0  0  0  0  0  0  0  0  0
    4.5068    3.8227   -0.5249 C   0  0  0  0  0  0  0  0  0  0  0  0
    3.8473    4.2520   -1.6807 C   0  0  0  0  0  0  0  0  0  0  0  0
    3.1528    5.4670   -1.6880 C   0  0  0  0  0  0  0  0  0  0  0  0
    3.1451    6.2940   -0.5615 C   0  0  0  0  0  0  0  0  0  0  0  0
    2.3676    7.4589   -0.5462 N   0  0  0  0  0  0  0  0  0  0  0  0
    3.7392    5.8263    0.6136 C   0  0  0  0  0  0  0  0  0  0  0  0
    4.4348    4.6111    0.6302 C   0  0  0  0  0  0  0  0  0  0  0  0
    3.9617   -0.1335    3.4697 H   0  0  0  0  0  0  0  0  0  0  0  0
    3.7887   -1.8106    2.9279 H   0  0  0  0  0  0  0  0  0  0  0  0
    2.3671   -0.7307    3.0126 H   0  0  0  0  0  0  0  0  0  0  0  0
    4.9162    1.3065    1.8974 H   0  0  0  0  0  0  0  0  0  0  0  0
    4.0477    0.9378   -2.2979 H   0  0  0  0  0  0  0  0  0  0  0  0
    2.7823   -1.1145   -1.8636 H   0  0  0  0  0  0  0  0  0  0  0  0
    1.7104   -2.5091   -0.2598 H   0  0  0  0  0  0  0  0  0  0  0  0
    1.9705   -2.3943    1.3984 H   0  0  0  0  0  0  0  0  0  0  0  0
    7.1285    0.5356   -0.1712 H   0  0  0  0  0  0  0  0  0  0  0  0
    9.2745    0.4324   -1.3268 H   0  0  0  0  0  0  0  0  0  0  0  0
   10.5082    1.4339   -3.0329 H   0  0  0  0  0  0  0  0  0  0  0  0
    8.9189    4.6446   -2.3858 H   0  0  0  0  0  0  0  0  0  0  0  0
    6.7952    4.7683   -1.1965 H   0  0  0  0  0  0  0  0  0  0  0  0
    3.8692    3.6474   -2.5831 H   0  0  0  0  0  0  0  0  0  0  0  0
    2.6256    5.7670   -2.5898 H   0  0  0  0  0  0  0  0  0  0  0  0
    2.2269    7.8708   -1.4635 H   0  0  0  0  0  0  0  0  0  0  0  0
    2.6740    8.1452    0.1369 H   0  0  0  0  0  0  0  0  0  0  0  0
    3.6725    6.4102    1.5274 H   0  0  0  0  0  0  0  0  0  0  0  0
    4.9104    4.2849    1.5498 H   0  0  0  0  0  0  0  0  0  0  0  0
  1  2  1  0  0  0  0
  1 24  1  0  0  0  0
  1 25  1  0  0  0  0
  1 26  1  0  0  0  0
  2  3  2  0  0  0  0
  2  7  1  0  0  0  0
  3  4  1  0  0  0  0
  3 27  1  0  0  0  0
  4  5  2  0  0  0  0
  4  9  1  0  0  0  0
  5  6  1  0  0  0  0
  5 28  1  0  0  0  0
  6  7  2  0  0  0  0
  6 29  1  0  0  0  0
  7  8  1  0  0  0  0
  8 30  1  0  0  0  0
  8 31  1  0  0  0  0
  9 10  2  3  0  0  0
  9 17  1  0  0  0  0
 10 11  1  0  0  0  0
 10 16  1  0  0  0  0
 11 12  2  0  0  0  0
 11 32  1  0  0  0  0
 12 13  1  0  0  0  0
 12 33  1  0  0  0  0
 13 14  2  0  0  0  0
 13 15  1  0  0  0  0
 14 34  1  0  0  0  0
 15 16  2  0  0  0  0
 15 35  1  0  0  0  0
 16 36  1  0  0  0  0
 17 18  2  0  0  0  0
 17 23  1  0  0  0  0
 18 19  1  0  0  0  0
 18 37  1  0  0  0  0
 19 20  2  0  0  0  0
 19 38  1  0  0  0  0
 20 21  1  0  0  0  0
 20 22  1  0  0  0  0
 21 39  1  0  0  0  0
 21 40  1  0  0  0  0
 22 23  2  0  0  0  0
 22 41  1  0  0  0  0
 23 42  1  0  0  0  0
M  END
$$$$

 OpenBabel12201709243D

 14 14  0  0  0  0  0  0  0  0999 V2000
    0.9840   -0.0848   -0.2690 N   0  0  0  0  0  0  0  0  0  0  0  0
    2.3837   -0.0610   -0.0843 C   0  0  0  0  0  0  0  0  0  0  0  0
    3.0945    1.1549   -0.1074 C   0  0  0  0  0  0  0  0  0  0  0  0
    2.2521    2.6671   -0.1459 Cl  0  0  0  0  0  0  0  0  0  0  0  0
    4.4906    1.1828   -0.0754 C   0  0  0  0  0  0  0  0  0  0  0  0
    5.1991   -0.0143   -0.0536 C   0  0  0  0  0  0  0  0  0  0  0  0
    6.9189    0.0143   -0.0219 Cl  0  0  0  0  0  0  0  0  0  0  0  0
    4.5306   -1.2341   -0.0687 C   0  0  0  0  0  0  0  0  0  0  0  0
    3.1343   -1.2526   -0.1011 C   0  0  0  0  0  0  0  0  0  0  0  0
    2.3425   -2.7922   -0.1321 Cl  0  0  0  0  0  0  0  0  0  0  0  0
    0.5164    0.7603    0.0510 H   0  0  0  0  0  0  0  0  0  0  0  0
    0.5446   -0.9429    0.0562 H   0  0  0  0  0  0  0  0  0  0  0  0
    5.0201    2.1318   -0.0761 H   0  0  0  0  0  0  0  0  0  0  0  0
    5.0906   -2.1656   -0.0653 H   0  0  0  0  0  0  0  0  0  0  0  0
  1  2  1  0  0  0  0
  1 11  1  0  0  0  0
  1 12  1  0  0  0  0
  2  3  2  0  0  0  0
  2  9  1  0  0  0  0
  3  4  1  0  0  0  0
  3  5  1  0  0  0  0
  5  6  2  0  0  0  0
  5 13  1  0  0  0  0
  6  7  1  0  0  0  0
  6  8  1  0  0  0  0
  8  9  2  0  0  0  0
  8 14  1  0  0  0  0
  9 10  1  0  0  0  0
M  END
$$$$

 OpenBabel12201709243D

 20 20  0  0  0  0  0  0  0  0999 V2000
    1.0872    0.0237   -2.0684 C   0  0  0  0  0  0  0  0  0  0  0  0
    2.5366    0.0636   -2.1777 N   0  0  0  0  0  0  0  0  0  0  0  0
    3.1316    0.2238   -3.4322 N   0  0  0  0  0  0  0  0  0  0  0  0
    2.4533    0.8770   -4.2304 O   0  0  0  0  0  0  0  0  0  0  0  0
    3.2847   -0.4566   -1.1109 C   0  0  0  0  0  0  0  0  0  0  0  0
    2.7557   -0.9105   -0.0933 O   0  0  0  0  0  0  0  0  0  0  0  0
    4.7764   -0.4813   -1.1767 C   0  0  0  0  0  0  0  0  0  0  0  0
    5.5240    0.5605   -1.7395 C   0  0  0  0  0  0  0  0  0  0  0  0
    6.9147    0.4696   -1.8141 C   0  0  0  0  0  0  0  0  0  0  0  0
    7.5708   -0.6392   -1.2843 C   0  0  0  0  0  0  0  0  0  0  0  0
    6.8387   -1.6512   -0.6654 C   0  0  0  0  0  0  0  0  0  0  0  0
    5.4458   -1.5737   -0.6051 C   0  0  0  0  0  0  0  0  0  0  0  0
    0.5838    0.4989   -2.9147 H   0  0  0  0  0  0  0  0  0  0  0  0
    0.7866    0.5389   -1.1505 H   0  0  0  0  0  0  0  0  0  0  0  0
    0.7678   -1.0216   -1.9989 H   0  0  0  0  0  0  0  0  0  0  0  0
    5.0394    1.4523   -2.1285 H   0  0  0  0  0  0  0  0  0  0  0  0
    7.4852    1.2646   -2.2875 H   0  0  0  0  0  0  0  0  0  0  0  0
    8.6537   -0.7107   -1.3458 H   0  0  0  0  0  0  0  0  0  0  0  0
    7.3536   -2.5012   -0.2255 H   0  0  0  0  0  0  0  0  0  0  0  0
    4.8865   -2.3676   -0.1148 H   0  0  0  0  0  0  0  0  0  0  0  0
  1  2  1  0  0  0  0
  1 13  1  0  0  0  0
  1 14  1  0  0  0  0
  1 15  1  0  0  0  0
  2  3  1  0  0  0  0
  2  5  1  0  0  0  0
  3  4  2  0  0  0  0
  5  6  2  0  0  0  0
  5  7  1  0  0  0  0
  7  8  2  0  0  0  0
  7 12  1  0  0  0  0
  8  9  1  0  0  0  0
  8 16  1  0  0  0  0
  9 10  2  0  0  0  0
  9 17  1  0  0  0  0
 10 11  1  0  0  0  0
 10 18  1  0  0  0  0
 11 12  2  0  0  0  0
 11 19  1  0  0  0  0
 12 20  1  0  0  0  0
M  END
$$$$

 OpenBabel12201709243D

 70 73  0  0  1  0  0  0  0  0999 V2000
    0.2614   -4.2394    2.8321 C   0  0  0  0  0  0  0  0  0  0  0  0
    1.4524   -3.3632    2.5022 C   0  0  0  0  0  0  0  0  0  0  0  0
    2.4996   -3.4692    3.1489 O   0  0  0  0  0  0  0  0  0  0  0  0
    1.3501   -2.4021    1.3227 C   0  0  3  0  0  0  0  0  0  0  0  0
    1.0990   -3.2361    0.1339 N   0  0  0  0  0  0  0  0  0  0  0  0
    1.6436   -2.8146   -0.9107 N   0  0  0  0  0  0  0  0  0  0  0  0
    1.4836   -3.7292   -1.9802 C   0  0  0  0  0  0  0  0  0  0  0  0
    1.4210   -5.1109   -1.7652 C   0  0  0  0  0  0  0  0  0  0  0  0
    1.3259   -6.0135   -2.8310 C   0  0  0  0  0  0  0  0  0  0  0  0
    1.3331   -5.5779   -4.1665 C   0  0  0  0  0  0  0  0  0  0  0  0
    1.3699   -4.1922   -4.3805 C   0  0  0  0  0  0  0  0  0  0  0  0
    1.4364   -3.2826   -3.3118 C   0  0  0  0  0  0  0  0  0  0  0  0
    1.4556   -1.5895   -3.6762 Cl  0  0  0  0  0  0  0  0  0  0  0  0
    1.3248   -6.5631   -5.2778 C   0  0  0  0  0  0  0  0  0  0  0  0
    0.7133   -6.2894   -6.5106 C   0  0  0  0  0  0  0  0  0  0  0  0
    0.7159   -7.2299   -7.5509 C   0  0  0  0  0  0  0  0  0  0  0  0
    1.3258   -8.4868   -7.4105 C   0  0  0  0  0  0  0  0  0  0  0  0
    1.3107   -9.4542   -8.4457 N   0  0  0  0  0  0  0  0  0  0  0  0
    1.3444   -8.9234   -9.5775 N   0  0  0  0  0  0  0  0  0  0  0  0
    1.4051   -9.8971  -10.6872 C   0  0  3  0  0  0  0  0  0  0  0  0
    0.1662   -9.6499  -11.5267 C   0  0  0  0  0  0  0  0  0  0  0  0
    0.2158   -9.3781  -12.7301 O   0  0  0  0  0  0  0  0  0  0  0  0
   -1.1728   -9.7875  -10.8420 C   0  0  0  0  0  0  0  0  0  0  0  0
    2.7631   -9.7073  -11.3741 C   0  0  0  0  0  0  0  0  0  0  0  0
    3.7544   -9.4115  -10.7031 O   0  0  0  0  0  0  0  0  0  0  0  0
    2.7973   -9.9618  -12.7388 N   0  0  0  0  0  0  0  0  0  0  0  0
    3.9471   -9.9623  -13.5624 C   0  0  0  0  0  0  0  0  0  0  0  0
    5.2501  -10.0113  -13.0609 C   0  0  0  0  0  0  0  0  0  0  0  0
    6.3504   -9.9664  -13.9207 C   0  0  0  0  0  0  0  0  0  0  0  0
    6.1592   -9.8854  -15.2959 C   0  0  0  0  0  0  0  0  0  0  0  0
    4.8655   -9.8680  -15.8122 C   0  0  0  0  0  0  0  0  0  0  0  0
    3.7634   -9.9149  -14.9504 C   0  0  0  0  0  0  0  0  0  0  0  0
    1.9239   -8.7725   -6.1764 C   0  0  0  0  0  0  0  0  0  0  0  0
    2.6616  -10.3075   -5.8659 Cl  0  0  0  0  0  0  0  0  0  0  0  0
    1.9360   -7.8252   -5.1412 C   0  0  0  0  0  0  0  0  0  0  0  0
    0.2185   -1.4113    1.4726 C   0  0  0  0  0  0  0  0  0  0  0  0
   -0.3996   -1.3215    2.5344 O   0  0  0  0  0  0  0  0  0  0  0  0
   -0.0272   -0.6394    0.3397 N   0  0  0  0  0  0  0  0  0  0  0  0
   -1.0810    0.2885    0.1960 C   0  0  0  0  0  0  0  0  0  0  0  0
   -1.8403    0.7467    1.2766 C   0  0  0  0  0  0  0  0  0  0  0  0
   -2.9477    1.5692    1.0798 C   0  0  0  0  0  0  0  0  0  0  0  0
   -3.2928    1.9697   -0.2055 C   0  0  0  0  0  0  0  0  0  0  0  0
   -2.5098    1.5713   -1.2871 C   0  0  0  0  0  0  0  0  0  0  0  0
   -1.4013    0.7388   -1.0884 C   0  0  0  0  0  0  0  0  0  0  0  0
    0.4961   -4.8557    3.7056 H   0  0  0  0  0  0  0  0  0  0  0  0
    0.0359   -4.9008    1.9930 H   0  0  0  0  0  0  0  0  0  0  0  0
   -0.6192   -3.6434    3.0802 H   0  0  0  0  0  0  0  0  0  0  0  0
    2.2971   -1.8496    1.2494 H   0  0  0  0  0  0  0  0  0  0  0  0
    1.4542   -5.5115   -0.7568 H   0  0  0  0  0  0  0  0  0  0  0  0
    1.2543   -7.0730   -2.5834 H   0  0  0  0  0  0  0  0  0  0  0  0
    1.3726   -3.7951   -5.3947 H   0  0  0  0  0  0  0  0  0  0  0  0
    0.2104   -5.3413   -6.6865 H   0  0  0  0  0  0  0  0  0  0  0  0
    0.2288   -6.9673   -8.4872 H   0  0  0  0  0  0  0  0  0  0  0  0
    1.3672  -10.9373  -10.3373 H   0  0  0  0  0  0  0  0  0  0  0  0
   -1.0789  -10.3738   -9.9243 H   0  0  0  0  0  0  0  0  0  0  0  0
   -1.8611  -10.3159  -11.5074 H   0  0  0  0  0  0  0  0  0  0  0  0
   -1.5680   -8.7970  -10.6046 H   0  0  0  0  0  0  0  0  0  0  0  0
    1.9004   -9.9446  -13.2266 H   0  0  0  0  0  0  0  0  0  0  0  0
    5.4484  -10.0902  -11.9969 H   0  0  0  0  0  0  0  0  0  0  0  0
    7.3549   -9.9897  -13.5060 H   0  0  0  0  0  0  0  0  0  0  0  0
    7.0175   -9.8380  -15.9608 H   0  0  0  0  0  0  0  0  0  0  0  0
    4.7152   -9.8087  -16.8874 H   0  0  0  0  0  0  0  0  0  0  0  0
    2.7658   -9.8894  -15.3815 H   0  0  0  0  0  0  0  0  0  0  0  0
    2.4447   -8.0866   -4.2149 H   0  0  0  0  0  0  0  0  0  0  0  0
    0.4832   -0.8922   -0.5030 H   0  0  0  0  0  0  0  0  0  0  0  0
   -1.5997    0.4812    2.3002 H   0  0  0  0  0  0  0  0  0  0  0  0
   -3.5382    1.8815    1.9365 H   0  0  0  0  0  0  0  0  0  0  0  0
   -4.1694    2.5940   -0.3570 H   0  0  0  0  0  0  0  0  0  0  0  0
   -2.7735    1.8977   -2.2899 H   0  0  0  0  0  0  0  0  0  0  0  0
   -0.8211    0.4296   -1.9547 H   0  0  0  0  0  0  0  0  0  0  0  0
  1  2  1  0  0  0  0
  1 45  1  0  0  0  0
  1 46  1  0  0  0  0
  1 47  1  0  0  0  0
  2  3  2  0  0  0  0
  2  4  1  0  0  0  0
  4  5  1  0  0  0  0
  4 36  1  0  0  0  0
  4 48  1  0  0  0  0
  5  6  2  3  0  0  0
  6  7  1  0  0  0  0
  7  8  2  0  0  0  0
  7 12  1  0  0  0  0
  8  9  1  0  0  0  0
  8 49  1  0  0  0  0
  9 10  2  0  0  0  0
  9 50  1  0  0  0  0
 10 11  1  0  0  0  0
 10 14  1  0  0  0  0
 11 12  2  0  0  0  0
 11 51  1  0  0  0  0
 12 13  1  0  0  0  0
 14 15  2  0  0  0  0
 14 35  1  0  0  0  0
 15 16  1  0  0  0  0
 15 52  1  0  0  0  0
 16 17  2  0  0  0  0
 16 53  1  0  0  0  0
 17 18  1  0  0  0  0
 17 33  1  0  0  0  0
 18 19  2  3  0  0  0
 19 20  1  0  0  0  0
 20 21  1  0  0  0  0
 20 24  1  0  0  0  0
 20 54  1  0  0  0  0
 21 22  2  0  0  0  0
 21 23  1  0  0  0  0
 23 55  1  0  0  0  0
 23 56  1  0  0  0  0
 23 57  1  0  0  0  0
 24 25  2  0  0  0  0
 24 26  1  0  0  0  0
 26 27  1  0  0  0  0
 26 58  1  0  0  0  0
 27 28  2  0  0  0  0
 27 32  1  0  0  0  0
 28 29  1  0  0  0  0
 28 59  1  0  0  0  0
 29 30  2  0  0  0  0
 29 60  1  0  0  0  0
 30 31  1  0  0  0  0
 30 61  1  0  0  0  0
 31 32  2  0  0  0  0
 31 62  1  0  0  0  0
 32 63  1  0  0  0  0
 33 34  1  0  0  0  0
 33 35  2  0  0  0  0
 35 64  1  0  0  0  0
 36 37  2  0  0  0  0
 36 38  1  0  0  0  0
 38 39  1  0  0  0  0
 38 65  1  0  0  0  0
 39 40  2  0  0  0  0
 39 44  1  0  0  0  0
 40 41  1  0  0  0  0
 40 66  1  0  0  0  0
 41 42  2  0  0  0  0
 41 67  1  0  0  0  0
 42 43  1  0  0  0  0
 42 68  1  0  0  0  0
 43 44  2  0  0  0  0
 43 69  1  0  0  0  0
 44 70  1  0  0  0  0
M  END
$$$$

 OpenBabel12201709243D

 17 17  0  0  0  0  0  0  0  0999 V2000
    1.0228   -0.0516    0.0691 C   0  0  0  0  0  0  0  0  0  0  0  0
    2.5209   -0.0830   -0.0577 C   0  0  0  0  0  0  0  0  0  0  0  0
    3.2256    1.1322   -0.1118 C   0  0  0  0  0  0  0  0  0  0  0  0
    4.6167    1.1475   -0.2000 C   0  0  0  0  0  0  0  0  0  0  0  0
    5.3199   -0.0511   -0.2188 C   0  0  0  0  0  0  0  0  0  0  0  0
    4.6287   -1.2626   -0.1667 C   0  0  0  0  0  0  0  0  0  0  0  0
    3.2279   -1.2968   -0.1393 C   0  0  0  0  0  0  0  0  0  0  0  0
    2.5859   -2.5339    0.0342 N   0  0  0  0  0  0  0  0  0  0  0  0
    0.6473    0.9725    0.1689 H   0  0  0  0  0  0  0  0  0  0  0  0
    0.7021   -0.6058    0.9570 H   0  0  0  0  0  0  0  0  0  0  0  0
    0.5600   -0.4887   -0.8216 H   0  0  0  0  0  0  0  0  0  0  0  0
    2.6911    2.0787   -0.0712 H   0  0  0  0  0  0  0  0  0  0  0  0
    5.1499    2.0937   -0.2334 H   0  0  0  0  0  0  0  0  0  0  0  0
    6.4055   -0.0467   -0.2592 H   0  0  0  0  0  0  0  0  0  0  0  0
    5.1968   -2.1891   -0.1491 H   0  0  0  0  0  0  0  0  0  0  0  0
    3.1115   -3.3173   -0.3400 H   0  0  0  0  0  0  0  0  0  0  0  0
    1.6209   -2.5415   -0.2770 H   0  0  0  0  0  0  0  0  0  0  0  0
  1  2  1  0  0  0  0
  1  9  1  0  0  0  0
  1 10  1  0  0  0  0
  1 11  1  0  0  0  0
  2  3  2  0  0  0  0
  2  7  1  0  0  0  0
  3  4  1  0  0  0  0
  3 12  1  0  0  0  0
  4  5  2  0  0  0  0
  4 13  1  0  0  0  0
  5  6  1  0  0  0  0
  5 14  1  0  0  0  0
  6  7  2  0  0  0  0
  6 15  1  0  0  0  0
  7  8  1  0  0  0  0
  8 16  1  0  0  0  0
  8 17  1  0  0  0  0
M  END
$$$$

 OpenBabel12201709243D

 19 19  0  0  0  0  0  0  0  0999 V2000
    1.0121    0.0796   -0.0130 C   0  0  0  0  0  0  0  0  0  0  0  0
    2.5082    0.0502   -0.1586 C   0  0  0  0  0  0  0  0  0  0  0  0
    3.2128    1.2627   -0.2073 C   0  0  0  0  0  0  0  0  0  0  0  0
    4.6040    1.2763   -0.3266 C   0  0  0  0  0  0  0  0  0  0  0  0
    5.3178    0.0844   -0.4248 C   0  0  0  0  0  0  0  0  0  0  0  0
    6.7196    0.0989   -0.4063 N   0  0  0  0  0  0  0  0  0  0  0  0
    4.6200   -1.1212   -0.3018 C   0  0  0  0  0  0  0  0  0  0  0  0
    3.2174   -1.1602   -0.2449 C   0  0  0  0  0  0  0  0  0  0  0  0
    2.5820   -2.3973   -0.0416 N   0  0  0  0  0  0  0  0  0  0  0  0
    0.6358    1.1039    0.0794 H   0  0  0  0  0  0  0  0  0  0  0  0
    0.7024   -0.4663    0.8837 H   0  0  0  0  0  0  0  0  0  0  0  0
    0.5406   -0.3668   -0.8946 H   0  0  0  0  0  0  0  0  0  0  0  0
    2.6841    2.2098   -0.1286 H   0  0  0  0  0  0  0  0  0  0  0  0
    5.1250    2.2297   -0.3253 H   0  0  0  0  0  0  0  0  0  0  0  0
    7.1211    0.9411   -0.8064 H   0  0  0  0  0  0  0  0  0  0  0  0
    7.1373   -0.7440   -0.7880 H   0  0  0  0  0  0  0  0  0  0  0  0
    5.1788   -2.0520   -0.2580 H   0  0  0  0  0  0  0  0  0  0  0  0
    3.1032   -3.1862   -0.4100 H   0  0  0  0  0  0  0  0  0  0  0  0
    1.6107   -2.4131   -0.3315 H   0  0  0  0  0  0  0  0  0  0  0  0
  1  2  1  0  0  0  0
  1 10  1  0  0  0  0
  1 11  1  0  0  0  0
  1 12  1  0  0  0  0
  2  3  2  0  0  0  0
  2  8  1  0  0  0  0
  3  4  1  0  0  0  0
  3 13  1  0  0  0  0
  4  5  2  0  0  0  0
  4 14  1  0  0  0  0
  5  6  1  0  0  0  0
  5  7  1  0  0  0  0
  6 15  1  0  0  0  0
  6 16  1  0  0  0  0
  7  8  2  0  0  0  0
  7 17  1  0  0  0  0
  8  9  1  0  0  0  0
  9 18  1  0  0  0  0
  9 19  1  0  0  0  0
M  END
$$$$

 OpenBabel12201709243D

 24 24  0  0  0  0  0  0  0  0999 V2000
    0.9948    0.1611    0.1194 C   0  0  0  0  0  0  0  0  0  0  0  0
    2.4933    0.1193   -0.0070 C   0  0  0  0  0  0  0  0  0  0  0  0
    3.2090    1.3332   -0.0224 C   0  0  0  0  0  0  0  0  0  0  0  0
    4.6028    1.3561   -0.1470 C   0  0  0  0  0  0  0  0  0  0  0  0
    5.3440    2.5536   -0.0701 N   0  0  0  0  0  0  0  0  0  0  0  0
    4.6587    3.7857    0.0200 O   0  0  0  0  0  0  0  0  0  0  0  0
    5.1448    4.7124    1.2978 S   0  0  0  0  0  0  0  0  0  0  0  0
    6.5440    5.0271    1.1096 O   0  0  0  0  0  0  0  0  0  0  0  0
    4.1558    5.7406    1.5208 O   0  0  0  0  0  0  0  0  0  0  0  0
    5.0727    3.6755    2.5330 O   0  0  0  0  0  0  0  0  0  0  0  0
    5.2838    0.1408   -0.2116 C   0  0  0  0  0  0  0  0  0  0  0  0
    4.5858   -1.0691   -0.1723 C   0  0  0  0  0  0  0  0  0  0  0  0
    3.1871   -1.0942   -0.1198 C   0  0  0  0  0  0  0  0  0  0  0  0
    2.5435   -2.3286    0.0594 N   0  0  0  0  0  0  0  0  0  0  0  0
    0.6240    1.1874    0.2124 H   0  0  0  0  0  0  0  0  0  0  0  0
    0.6690   -0.3896    1.0070 H   0  0  0  0  0  0  0  0  0  0  0  0
    0.5312   -0.2753   -0.7722 H   0  0  0  0  0  0  0  0  0  0  0  0
    2.6613    2.2690    0.0628 H   0  0  0  0  0  0  0  0  0  0  0  0
    6.0895    2.5854   -0.7696 H   0  0  0  0  0  0  0  0  0  0  0  0
    5.5256    2.8568    2.2459 H   0  0  0  0  0  0  0  0  0  0  0  0
    6.3699    0.1179   -0.2525 H   0  0  0  0  0  0  0  0  0  0  0  0
    5.1484   -1.9990   -0.1733 H   0  0  0  0  0  0  0  0  0  0  0  0
    3.0518   -3.1210   -0.3192 H   0  0  0  0  0  0  0  0  0  0  0  0
    1.5680   -2.3345   -0.2186 H   0  0  0  0  0  0  0  0  0  0  0  0
  1  2  1  0  0  0  0
  1 15  1  0  0  0  0
  1 16  1  0  0  0  0
  1 17  1  0  0  0  0
  2  3  2  0  0  0  0
  2 13  1  0  0  0  0
  3  4  1  0  0  0  0
  3 18  1  0  0  0  0
  4  5  1  0  0  0  0
  4 11  2  0  0  0  0
  5  6  1  0  0  0  0
  5 19  1  0  0  0  0
  6  7  1  0  0  0  0
  7  8  2  0  0  0  0
  7  9  2  0  0  0  0
  7 10  1  0  0  0  0
 10 20  1  0  0  0  0
 11 12  1  0  0  0  0
 11 21  1  0  0  0  0
 12 13  2  0  0  0  0
 12 22  1  0  0  0  0
 13 14  1  0  0  0  0
 14 23  1  0  0  0  0
 14 24  1  0  0  0  0
M  END
$$$$

 OpenBabel12201709243D

 46 48  0  0  0  0  0  0  0  0999 V2000
    2.3919    0.8112   -0.9350 O   0  0  0  0  0  0  0  0  0  0  0  0
    2.6174   -0.1600   -0.0710 N   0  0  0  0  0  0  0  0  0  0  0  0
    2.1648   -1.2468   -0.2821 O   0  0  0  0  0  0  0  0  0  0  0  0
    3.3870    0.0879    1.1093 C   0  0  0  0  0  0  0  0  0  0  0  0
    3.9161    1.3549    1.3447 C   0  0  0  0  0  0  0  0  0  0  0  0
    4.6629    1.6041    2.4848 C   0  0  0  0  0  0  0  0  0  0  0  0
    4.9104    0.6085    3.4596 C   0  0  0  0  0  0  0  0  0  0  0  0
    5.7251    0.9539    4.6023 N   0  0  0  0  0  0  0  0  0  0  0  0
    5.8258    2.2859    5.1257 C   0  0  0  0  0  0  0  0  0  0  0  0
    4.7524    3.1780    5.0219 C   0  0  0  0  0  0  0  0  0  0  0  0
    4.8708    4.4945    5.4394 C   0  0  0  0  0  0  0  0  0  0  0  0
    6.0743    4.9916    5.9645 C   0  0  0  0  0  0  0  0  0  0  0  0
    6.2404    6.3915    6.2606 N   0  0  0  0  0  0  0  0  0  0  0  0
    5.6164    7.5126    5.5895 C   0  0  0  0  0  0  0  0  0  0  0  0
    4.7767    7.4088    4.4460 C   0  0  0  0  0  0  0  0  0  0  0  0
    4.2284    8.5457    3.8443 C   0  0  0  0  0  0  0  0  0  0  0  0
    4.5236    9.8129    4.3354 C   0  0  0  0  0  0  0  0  0  0  0  0
    5.3716    9.9478    5.4326 C   0  0  0  0  0  0  0  0  0  0  0  0
    5.9089    8.8132    6.0542 C   0  0  0  0  0  0  0  0  0  0  0  0
    7.1253    4.0570    6.2036 C   0  0  0  0  0  0  0  0  0  0  0  0
    6.9903    2.7197    5.7774 C   0  0  0  0  0  0  0  0  0  0  0  0
    8.6775    4.5083    7.0091 S   0  0  0  0  0  0  0  0  0  0  0  0
    9.4349    5.6182    6.2656 O   0  0  0  0  0  0  0  0  0  0  0  0
    8.4654    5.1429    8.3928 O   0  0  0  0  0  0  0  0  0  0  0  0
    9.8452    3.2749    7.2710 O   0  0  0  0  0  0  0  0  0  0  0  0
    8.9493    1.9561    8.5462 Na  0  0  0  0  0  0  0  0  0  0  0  0
    4.3792   -0.7113    3.2373 C   0  0  0  0  0  0  0  0  0  0  0  0
    3.6238   -0.9272    2.0515 C   0  0  0  0  0  0  0  0  0  0  0  0
    4.5573   -1.7887    4.1895 N   0  0  0  0  0  0  0  0  0  0  0  0
    5.1331   -1.5954    5.2127 O   0  0  0  0  0  0  0  0  0  0  0  0
    4.0501   -2.9988    4.0099 O   0  0  0  0  0  0  0  0  0  0  0  0
    1.8707    0.6625   -1.7382 H   0  0  0  0  0  0  0  0  0  0  0  0
    3.7632    2.1581    0.6374 H   0  0  0  0  0  0  0  0  0  0  0  0
    5.0721    2.5996    2.5819 H   0  0  0  0  0  0  0  0  0  0  0  0
    6.3949    0.2605    4.9605 H   0  0  0  0  0  0  0  0  0  0  0  0
    3.8080    2.8612    4.6015 H   0  0  0  0  0  0  0  0  0  0  0  0
    3.9935    5.1075    5.3439 H   0  0  0  0  0  0  0  0  0  0  0  0
    6.9906    6.6432    6.9179 H   0  0  0  0  0  0  0  0  0  0  0  0
    4.5318    6.4867    3.9591 H   0  0  0  0  0  0  0  0  0  0  0  0
    3.5812    8.4420    2.9812 H   0  0  0  0  0  0  0  0  0  0  0  0
    4.1061   10.6892    3.8549 H   0  0  0  0  0  0  0  0  0  0  0  0
    5.6162   10.9364    5.7990 H   0  0  0  0  0  0  0  0  0  0  0  0
    6.5686    8.9541    6.9001 H   0  0  0  0  0  0  0  0  0  0  0  0
    7.8133    2.0285    5.9156 H   0  0  0  0  0  0  0  0  0  0  0  0
    3.1950   -1.8861    1.8259 H   0  0  0  0  0  0  0  0  0  0  0  0
    3.5216   -3.2827    3.2597 H   0  0  0  0  0  0  0  0  0  0  0  0
  1  2  1  0  0  0  0
  1 32  1  0  0  0  0
  2  3  2  0  0  0  0
  2  4  1  0  0  0  0
  4  5  2  0  0  0  0
  4 28  1  0  0  0  0
  5  6  1  0  0  0  0
  5 33  1  0  0  0  0
  6  7  2  0  0  0  0
  6 34  1  0  0  0  0
  7  8  1  0  0  0  0
  7 27  1  0  0  0  0
  8  9  1  0  0  0  0
  8 35  1  0  0  0  0
  9 10  2  0  0  0  0
  9 21  1  0  0  0  0
 10 11  1  0  0  0  0
 10 36  1  0  0  0  0
 11 12  2  0  0  0  0
 11 37  1  0  0  0  0
 12 13  1  0  0  0  0
 12 20  1  0  0  0  0
 13 14  1  0  0  0  0
 13 38  1  0  0  0  0
 14 15  2  0  0  0  0
 14 19  1  0  0  0  0
 15 16  1  0  0  0  0
 15 39  1  0  0  0  0
 16 17  2  0  0  0  0
 16 40  1  0  0  0  0
 17 18  1  0  0  0  0
 17 41  1  0  0  0  0
 18 19  2  0  0  0  0
 18 42  1  0  0  0  0
 19 43  1  0  0  0  0
 20 21  2  0  0  0  0
 20 22  1  0  0  0  0
 21 44  1  0  0  0  0
 22 23  2  0  0  0  0
 22 24  2  0  0  0  0
 22 25  1  0  0  0  0
 25 26  1  0  0  0  0
 27 28  2  0  0  0  0
 27 29  1  0  0  0  0
 28 45  1  0  0  0  0
 29 30  2  0  0  0  0
 29 31  1  0  0  0  0
 31 46  1  0  0  0  0
M  END
$$$$

 OpenBabel12201709243D

 17 17  0  0  0  0  0  0  0  0999 V2000
    1.0474   -0.1258    0.1189 C   0  0  0  0  0  0  0  0  0  0  0  0
    2.5412   -0.1321   -0.0128 C   0  0  0  0  0  0  0  0  0  0  0  0
    3.2650    1.0628   -0.0619 C   0  0  0  0  0  0  0  0  0  0  0  0
    4.6563    1.0353   -0.1454 C   0  0  0  0  0  0  0  0  0  0  0  0
    5.3305   -0.1863   -0.1979 C   0  0  0  0  0  0  0  0  0  0  0  0
    4.6233   -1.3900   -0.2120 C   0  0  0  0  0  0  0  0  0  0  0  0
    5.3072   -2.6105   -0.1406 N   0  0  0  0  0  0  0  0  0  0  0  0
    3.2334   -1.3520   -0.0639 C   0  0  0  0  0  0  0  0  0  0  0  0
    0.6460    0.8925    0.0934 H   0  0  0  0  0  0  0  0  0  0  0  0
    0.7509   -0.5824    1.0686 H   0  0  0  0  0  0  0  0  0  0  0  0
    0.5936   -0.6837   -0.7065 H   0  0  0  0  0  0  0  0  0  0  0  0
    2.7538    2.0214   -0.0149 H   0  0  0  0  0  0  0  0  0  0  0  0
    5.2188    1.9650   -0.1539 H   0  0  0  0  0  0  0  0  0  0  0  0
    6.4165   -0.1892   -0.2296 H   0  0  0  0  0  0  0  0  0  0  0  0
    6.2292   -2.5828   -0.5640 H   0  0  0  0  0  0  0  0  0  0  0  0
    4.7593   -3.4009   -0.4653 H   0  0  0  0  0  0  0  0  0  0  0  0
    2.6764   -2.2829    0.0119 H   0  0  0  0  0  0  0  0  0  0  0  0
  1  2  1  0  0  0  0
  1  9  1  0  0  0  0
  1 10  1  0  0  0  0
  1 11  1  0  0  0  0
  2  3  2  0  0  0  0
  2  8  1  0  0  0  0
  3  4  1  0  0  0  0
  3 12  1  0  0  0  0
  4  5  2  0  0  0  0
  4 13  1  0  0  0  0
  5  6  1  0  0  0  0
  5 14  1  0  0  0  0
  6  7  1  0  0  0  0
  6  8  2  0  0  0  0
  7 15  1  0  0  0  0
  7 16  1  0  0  0  0
  8 17  1  0  0  0  0
M  END
$$$$

 OpenBabel12201709243D

  9  8  0  0  0  0  0  0  0  0999 V2000
    1.0431   -0.0345   -0.0871 C   0  0  0  0  0  0  0  0  0  0  0  0
    2.5577   -0.0325   -0.0940 C   0  0  0  0  0  0  0  0  0  0  0  0
    3.0380    1.0670   -0.8539 O   0  0  0  0  0  0  0  0  0  0  0  0
    0.6571   -0.8669    0.5078 H   0  0  0  0  0  0  0  0  0  0  0  0
    0.6515   -0.1184   -1.1062 H   0  0  0  0  0  0  0  0  0  0  0  0
    0.6585    0.9040    0.3255 H   0  0  0  0  0  0  0  0  0  0  0  0
    2.9495   -0.9573   -0.5281 H   0  0  0  0  0  0  0  0  0  0  0  0
    2.9451    0.0617    0.9246 H   0  0  0  0  0  0  0  0  0  0  0  0
    2.6970    0.9689   -1.7592 H   0  0  0  0  0  0  0  0  0  0  0  0
  1  2  1  0  0  0  0
  1  4  1  0  0  0  0
  1  5  1  0  0  0  0
  1  6  1  0  0  0  0
  2  3  1  0  0  0  0
  2  7  1  0  0  0  0
  2  8  1  0  0  0  0
  3  9  1  0  0  0  0
M  END
$$$$

 OpenBabel12201709243D

 56 59  0  0  1  0  0  0  0  0999 V2000
    1.6139   10.2289    0.9460 C   0  0  0  0  0  0  0  0  0  0  0  0
    2.8015    9.5955    1.4865 N   0  0  0  0  0  0  0  0  0  0  0  0
    2.9047    9.6558    2.9326 C   0  0  0  0  0  0  0  0  0  0  0  0
    3.2940    8.3752    0.8223 C   0  0  3  0  0  0  0  0  0  0  0  0
    2.4430    7.0741    0.8499 C   0  0  3  0  0  0  0  0  0  0  0  0
    0.9395    7.1990    1.1890 C   0  0  0  0  0  0  0  0  0  0  0  0
    0.1585    5.8390    1.3587 C   0  0  3  0  0  0  0  0  0  0  0  0
    0.9858    4.6248    0.9933 C   0  0  0  0  0  0  0  0  0  0  0  0
    2.3363    4.6730    1.0391 C   0  0  0  0  0  0  0  0  0  0  0  0
    3.1614    3.7049    0.5081 O   0  0  0  0  0  0  0  0  0  0  0  0
    2.9957    5.9050    1.6549 C   0  0  3  0  0  0  0  0  0  0  0  0
    2.5203    5.9660    3.0277 O   0  0  0  0  0  0  0  0  0  0  0  0
    4.4979    5.8502    1.9115 C   0  0  0  0  0  0  0  0  0  0  0  0
    5.0273    4.8382    2.3870 O   0  0  0  0  0  0  0  0  0  0  0  0
    5.2926    7.0973    1.7940 C   0  0  0  0  0  0  0  0  0  0  0  0
    4.7700    8.1824    1.1867 C   0  0  0  0  0  0  0  0  0  0  0  0
    5.5278    9.3266    0.9184 O   0  0  0  0  0  0  0  0  0  0  0  0
    6.6103    7.2505    2.4921 C   0  0  0  0  0  0  0  0  0  0  0  0
    7.3027    8.2600    2.3782 O   0  0  0  0  0  0  0  0  0  0  0  0
    6.9734    6.2648    3.3519 N   0  0  0  0  0  0  0  0  0  0  0  0
    0.2878    3.3494    0.6972 C   0  0  0  0  0  0  0  0  0  0  0  0
    0.9159    2.3044    0.5304 O   0  0  0  0  0  0  0  0  0  0  0  0
   -1.1918    3.3488    0.6358 C   0  0  0  0  0  0  0  0  0  0  0  0
   -1.8772    2.1203    0.6218 C   0  0  0  0  0  0  0  0  0  0  0  0
   -1.2718    0.9049    0.8024 O   0  0  0  0  0  0  0  0  0  0  0  0
   -3.2602    2.0747    0.4328 C   0  0  0  0  0  0  0  0  0  0  0  0
   -3.9626    3.2559    0.2287 C   0  0  0  0  0  0  0  0  0  0  0  0
   -3.2913    4.4773    0.2705 C   0  0  0  0  0  0  0  0  0  0  0  0
   -1.9064    4.5534    0.5292 C   0  0  0  0  0  0  0  0  0  0  0  0
   -1.2140    5.9038    0.6200 C   0  0  3  0  0  0  0  0  0  0  0  0
   -2.0842    6.9537    1.3502 C   0  0  0  0  0  0  0  0  0  0  0  0
   -1.0247    6.3630   -0.7228 O   0  0  0  0  0  0  0  0  0  0  0  0
    1.6424   11.3030    1.1451 H   0  0  0  0  0  0  0  0  0  0  0  0
    0.6908    9.8451    1.3948 H   0  0  0  0  0  0  0  0  0  0  0  0
    1.5486   10.1150   -0.1398 H   0  0  0  0  0  0  0  0  0  0  0  0
    2.5825   10.6365    3.2997 H   0  0  0  0  0  0  0  0  0  0  0  0
    3.9443    9.5541    3.2630 H   0  0  0  0  0  0  0  0  0  0  0  0
    2.3061    8.8889    3.4288 H   0  0  0  0  0  0  0  0  0  0  0  0
    3.3356    8.6426   -0.2472 H   0  0  0  0  0  0  0  0  0  0  0  0
    2.4649    6.7578   -0.2112 H   0  0  0  0  0  0  0  0  0  0  0  0
    0.4750    7.8208    0.4189 H   0  0  0  0  0  0  0  0  0  0  0  0
    0.8184    7.7330    2.1388 H   0  0  0  0  0  0  0  0  0  0  0  0
   -0.0615    5.7129    2.4318 H   0  0  0  0  0  0  0  0  0  0  0  0
    2.6103    2.9677    0.1626 H   0  0  0  0  0  0  0  0  0  0  0  0
    2.7431    5.0937    3.4142 H   0  0  0  0  0  0  0  0  0  0  0  0
    6.4081    9.2499    1.3489 H   0  0  0  0  0  0  0  0  0  0  0  0
    6.4472    5.3948    3.4221 H   0  0  0  0  0  0  0  0  0  0  0  0
    7.8160    6.3693    3.8979 H   0  0  0  0  0  0  0  0  0  0  0  0
   -0.3022    1.0474    0.8483 H   0  0  0  0  0  0  0  0  0  0  0  0
   -3.7795    1.1203    0.4133 H   0  0  0  0  0  0  0  0  0  0  0  0
   -5.0332    3.2320    0.0386 H   0  0  0  0  0  0  0  0  0  0  0  0
   -3.8713    5.3776    0.0805 H   0  0  0  0  0  0  0  0  0  0  0  0
   -2.3496    6.6147    2.3591 H   0  0  0  0  0  0  0  0  0  0  0  0
   -3.0052    7.1798    0.8041 H   0  0  0  0  0  0  0  0  0  0  0  0
   -1.5741    7.9189    1.4404 H   0  0  0  0  0  0  0  0  0  0  0  0
   -0.5043    5.6991   -1.2067 H   0  0  0  0  0  0  0  0  0  0  0  0
  1  2  1  0  0  0  0
  1 33  1  0  0  0  0
  1 34  1  0  0  0  0
  1 35  1  0  0  0  0
  2  3  1  0  0  0  0
  2  4  1  0  0  0  0
  3 36  1  0  0  0  0
  3 37  1  0  0  0  0
  3 38  1  0  0  0  0
  4  5  1  0  0  0  0
  4 16  1  0  0  0  0
  4 39  1  0  0  0  0
  5  6  1  0  0  0  0
  5 11  1  0  0  0  0
  5 40  1  0  0  0  0
  6  7  1  0  0  0  0
  6 41  1  0  0  0  0
  6 42  1  0  0  0  0
  7  8  1  0  0  0  0
  7 30  1  0  0  0  0
  7 43  1  0  0  0  0
  8  9  2  0  0  0  0
  8 21  1  0  0  0  0
  9 10  1  0  0  0  0
  9 11  1  0  0  0  0
 10 44  1  0  0  0  0
 11 12  1  0  0  0  0
 11 13  1  0  0  0  0
 12 45  1  0  0  0  0
 13 14  2  0  0  0  0
 13 15  1  0  0  0  0
 15 16  2  0  0  0  0
 15 18  1  0  0  0  0
 16 17  1  0  0  0  0
 17 46  1  0  0  0  0
 18 19  2  0  0  0  0
 18 20  1  0  0  0  0
 20 47  1  0  0  0  0
 20 48  1  0  0  0  0
 21 22  2  0  0  0  0
 21 23  1  0  0  0  0
 23 24  2  0  0  0  0
 23 29  1  0  0  0  0
 24 25  1  0  0  0  0
 24 26  1  0  0  0  0
 25 49  1  0  0  0  0
 26 27  2  0  0  0  0
 26 50  1  0  0  0  0
 27 28  1  0  0  0  0
 27 51  1  0  0  0  0
 28 29  2  0  0  0  0
 28 52  1  0  0  0  0
 29 30  1  0  0  0  0
 30 31  1  0  0  0  0
 30 32  1  0  0  0  0
 31 53  1  0  0  0  0
 31 54  1  0  0  0  0
 31 55  1  0  0  0  0
 32 56  1  0  0  0  0
M  END
$$$$

 OpenBabel12201709243D

 36 36  0  0  0  0  0  0  0  0999 V2000
    3.0902   -3.2301   -2.2143 C   0  0  0  0  0  0  0  0  0  0  0  0
    3.3247   -2.8901   -0.7514 C   0  0  0  0  0  0  0  0  0  0  0  0
    4.3108   -1.7325   -0.5941 C   0  0  0  0  0  0  0  0  0  0  0  0
    4.5207   -1.3473    0.8704 C   0  0  0  0  0  0  0  0  0  0  0  0
    5.1652   -2.3908    1.6421 N   0  0  0  0  0  0  0  0  0  0  0  0
    6.5189   -2.5574    1.5935 C   0  0  0  0  0  0  0  0  0  0  0  0
    7.2570   -1.8554    0.9205 O   0  0  0  0  0  0  0  0  0  0  0  0
    6.9735   -3.5809    2.4079 N   0  0  0  0  0  0  0  0  0  0  0  0
    8.5935   -3.8807    2.6781 S   0  0  0  0  0  0  0  0  0  0  0  0
    8.6424   -4.7222    3.8570 O   0  0  0  0  0  0  0  0  0  0  0  0
    9.2022   -4.3079    1.4393 O   0  0  0  0  0  0  0  0  0  0  0  0
    9.2346   -2.2911    3.1440 C   0  0  0  0  0  0  0  0  0  0  0  0
    8.8068   -1.7060    4.3397 C   0  0  0  0  0  0  0  0  0  0  0  0
    9.2129   -0.4071    4.6527 C   0  0  0  0  0  0  0  0  0  0  0  0
   10.0485    0.3040    3.7804 C   0  0  0  0  0  0  0  0  0  0  0  0
   10.4363    1.7249    4.0695 C   0  0  0  0  0  0  0  0  0  0  0  0
   10.5122   -0.3176    2.6121 C   0  0  0  0  0  0  0  0  0  0  0  0
   10.1094   -1.6149    2.2919 C   0  0  0  0  0  0  0  0  0  0  0  0
    2.3852   -4.0629   -2.2990 H   0  0  0  0  0  0  0  0  0  0  0  0
    4.0241   -3.5242   -2.7038 H   0  0  0  0  0  0  0  0  0  0  0  0
    2.6723   -2.3748   -2.7548 H   0  0  0  0  0  0  0  0  0  0  0  0
    3.7033   -3.7805   -0.2371 H   0  0  0  0  0  0  0  0  0  0  0  0
    2.3681   -2.6268   -0.2856 H   0  0  0  0  0  0  0  0  0  0  0  0
    3.9301   -0.8563   -1.1333 H   0  0  0  0  0  0  0  0  0  0  0  0
    5.2693   -1.9994   -1.0559 H   0  0  0  0  0  0  0  0  0  0  0  0
    3.5664   -1.1162    1.3550 H   0  0  0  0  0  0  0  0  0  0  0  0
    5.1444   -0.4468    0.9186 H   0  0  0  0  0  0  0  0  0  0  0  0
    4.5973   -3.0845    2.1027 H   0  0  0  0  0  0  0  0  0  0  0  0
    6.3643   -4.0598    3.0567 H   0  0  0  0  0  0  0  0  0  0  0  0
    8.1436   -2.2412    5.0141 H   0  0  0  0  0  0  0  0  0  0  0  0
    8.8563    0.0556    5.5706 H   0  0  0  0  0  0  0  0  0  0  0  0
    9.9383    2.1020    4.9688 H   0  0  0  0  0  0  0  0  0  0  0  0
   10.1413    2.3699    3.2347 H   0  0  0  0  0  0  0  0  0  0  0  0
   11.5173    1.8019    4.2194 H   0  0  0  0  0  0  0  0  0  0  0  0
   11.1666    0.2191    1.9279 H   0  0  0  0  0  0  0  0  0  0  0  0
   10.4418   -2.0680    1.3605 H   0  0  0  0  0  0  0  0  0  0  0  0
  1  2  1  0  0  0  0
  1 19  1  0  0  0  0
  1 20  1  0  0  0  0
  1 21  1  0  0  0  0
  2  3  1  0  0  0  0
  2 22  1  0  0  0  0
  2 23  1  0  0  0  0
  3  4  1  0  0  0  0
  3 24  1  0  0  0  0
  3 25  1  0  0  0  0
  4  5  1  0  0  0  0
  4 26  1  0  0  0  0
  4 27  1  0  0  0  0
  5  6  1  0  0  0  0
  5 28  1  0  0  0  0
  6  7  2  0  0  0  0
  6  8  1  0  0  0  0
  8  9  1  0  0  0  0
  8 29  1  0  0  0  0
  9 10  2  0  0  0  0
  9 11  2  0  0  0  0
  9 12  1  0  0  0  0
 12 13  2  0  0  0  0
 12 18  1  0  0  0  0
 13 14  1  0  0  0  0
 13 30  1  0  0  0  0
 14 15  2  0  0  0  0
 14 31  1  0  0  0  0
 15 16  1  0  0  0  0
 15 17  1  0  0  0  0
 16 32  1  0  0  0  0
 16 33  1  0  0  0  0
 16 34  1  0  0  0  0
 17 18  2  0  0  0  0
 17 35  1  0  0  0  0
 18 36  1  0  0  0  0
M  END
$$$$

 OpenBabel12201709243D

 29 30  0  0  0  0  0  0  0  0999 V2000
    0.9824   -0.3361    0.0365 N   0  0  0  0  0  0  0  0  0  0  0  0
    2.3659   -0.1425   -0.1323 C   0  0  0  0  0  0  0  0  0  0  0  0
    3.1813   -0.0420    0.9997 C   0  0  0  0  0  0  0  0  0  0  0  0
    4.5752    0.0013    0.8835 C   0  0  0  0  0  0  0  0  0  0  0  0
    5.1909   -0.0876   -0.3736 C   0  0  0  0  0  0  0  0  0  0  0  0
    6.6995   -0.1139   -0.4943 C   0  0  0  0  0  0  0  0  0  0  0  0
    7.2577   -1.5181   -0.4516 C   0  0  0  0  0  0  0  0  0  0  0  0
    7.4754   -2.2388   -1.6328 C   0  0  0  0  0  0  0  0  0  0  0  0
    7.8843   -3.5759   -1.5867 C   0  0  0  0  0  0  0  0  0  0  0  0
    8.0381   -4.2373   -0.3647 C   0  0  0  0  0  0  0  0  0  0  0  0
    8.5104   -5.5642   -0.3583 N   0  0  0  0  0  0  0  0  0  0  0  0
    7.9126   -3.4843    0.8153 C   0  0  0  0  0  0  0  0  0  0  0  0
    8.1912   -4.2114    2.3607 Cl  0  0  0  0  0  0  0  0  0  0  0  0
    7.5095   -2.1463    0.7756 C   0  0  0  0  0  0  0  0  0  0  0  0
    4.3820   -0.2315   -1.5090 C   0  0  0  0  0  0  0  0  0  0  0  0
    2.9891   -0.2771   -1.3851 C   0  0  0  0  0  0  0  0  0  0  0  0
    2.0442   -0.4774   -2.8216 Cl  0  0  0  0  0  0  0  0  0  0  0  0
    0.5904    0.1341    0.8453 H   0  0  0  0  0  0  0  0  0  0  0  0
    0.4559   -0.1633   -0.8177 H   0  0  0  0  0  0  0  0  0  0  0  0
    2.7360   -0.0135    1.9911 H   0  0  0  0  0  0  0  0  0  0  0  0
    5.1766    0.0801    1.7851 H   0  0  0  0  0  0  0  0  0  0  0  0
    7.1489    0.4885    0.3062 H   0  0  0  0  0  0  0  0  0  0  0  0
    7.0033    0.3835   -1.4251 H   0  0  0  0  0  0  0  0  0  0  0  0
    7.3195   -1.7691   -2.6018 H   0  0  0  0  0  0  0  0  0  0  0  0
    8.0646   -4.1048   -2.5192 H   0  0  0  0  0  0  0  0  0  0  0  0
    8.1883   -6.1118   -1.1502 H   0  0  0  0  0  0  0  0  0  0  0  0
    8.3266   -6.0269    0.5308 H   0  0  0  0  0  0  0  0  0  0  0  0
    7.3754   -1.5992    1.7053 H   0  0  0  0  0  0  0  0  0  0  0  0
    4.8359   -0.3302   -2.4918 H   0  0  0  0  0  0  0  0  0  0  0  0
  1  2  1  0  0  0  0
  1 18  1  0  0  0  0
  1 19  1  0  0  0  0
  2  3  2  0  0  0  0
  2 16  1  0  0  0  0
  3  4  1  0  0  0  0
  3 20  1  0  0  0  0
  4  5  2  0  0  0  0
  4 21  1  0  0  0  0
  5  6  1  0  0  0  0
  5 15  1  0  0  0  0
  6  7  1  0  0  0  0
  6 22  1  0  0  0  0
  6 23  1  0  0  0  0
  7  8  2  0  0  0  0
  7 14  1  0  0  0  0
  8  9  1  0  0  0  0
  8 24  1  0  0  0  0
  9 10  2  0  0  0  0
  9 25  1  0  0  0  0
 10 11  1  0  0  0  0
 10 12  1  0  0  0  0
 11 26  1  0  0  0  0
 11 27  1  0  0  0  0
 12 13  1  0  0  0  0
 12 14  2  0  0  0  0
 14 28  1  0  0  0  0
 15 16  2  0  0  0  0
 15 29  1  0  0  0  0
 16 17  1  0  0  0  0
M  END
$$$$

 OpenBabel12201709243D

 84 89  0  0  0  0  0  0  0  0999 V2000
   10.7625   -6.4751    4.0627 C   0  0  0  0  0  0  0  0  0  0  0  0
    9.8212   -5.5840    3.3079 C   0  0  0  0  0  0  0  0  0  0  0  0
    8.8733   -6.1247    2.4240 C   0  0  0  0  0  0  0  0  0  0  0  0
    8.0152   -5.2831    1.7101 C   0  0  0  0  0  0  0  0  0  0  0  0
    8.0950   -3.8961    1.8745 C   0  0  0  0  0  0  0  0  0  0  0  0
    9.0343   -3.3529    2.7594 C   0  0  0  0  0  0  0  0  0  0  0  0
    9.8926   -4.1927    3.4756 C   0  0  0  0  0  0  0  0  0  0  0  0
    7.0541   -2.8000    0.9065 S   0  0  0  0  0  0  0  0  0  0  0  0
    6.1565   -3.5240   -0.1088 O   0  0  0  0  0  0  0  0  0  0  0  0
    6.0425   -2.0222    1.7605 O   0  0  0  0  0  0  0  0  0  0  0  0
    7.8917   -1.6195    0.0156 O   0  0  0  0  0  0  0  0  0  0  0  0
    9.0841   -1.8526   -0.5812 C   0  0  0  0  0  0  0  0  0  0  0  0
    9.5204   -3.1518   -0.9109 C   0  0  0  0  0  0  0  0  0  0  0  0
   10.7775   -3.3485   -1.4748 C   0  0  0  0  0  0  0  0  0  0  0  0
   11.6169   -2.2484   -1.7183 C   0  0  0  0  0  0  0  0  0  0  0  0
   12.9031   -2.4159   -2.2758 N   0  0  0  0  0  0  0  0  0  0  0  0
   13.3703   -3.5487   -2.4962 N   0  0  0  0  0  0  0  0  0  0  0  0
   14.6228   -3.7261   -3.1296 C   0  0  0  0  0  0  0  0  0  0  0  0
   15.4122   -2.6252   -3.4875 C   0  0  0  0  0  0  0  0  0  0  0  0
   16.6054   -2.8038   -4.1800 C   0  0  0  0  0  0  0  0  0  0  0  0
   17.0528   -4.0925   -4.5428 C   0  0  0  0  0  0  0  0  0  0  0  0
   16.2523   -5.1940   -4.1349 C   0  0  0  0  0  0  0  0  0  0  0  0
   15.0512   -5.0206   -3.4407 C   0  0  0  0  0  0  0  0  0  0  0  0
   14.2087   -6.2187   -3.0751 C   0  0  0  0  0  0  0  0  0  0  0  0
   18.2784   -4.2779   -5.4142 C   0  0  0  0  0  0  0  0  0  0  0  0
   19.0440   -3.1913   -5.8868 C   0  0  0  0  0  0  0  0  0  0  0  0
   20.0826   -3.3805   -6.8032 C   0  0  0  0  0  0  0  0  0  0  0  0
   20.3910   -4.6536   -7.3006 C   0  0  0  0  0  0  0  0  0  0  0  0
   21.3819   -4.8298   -8.3152 N   0  0  0  0  0  0  0  0  0  0  0  0
   21.9912   -3.8960   -8.8895 N   0  0  0  0  0  0  0  0  0  0  0  0
   22.8782   -4.1457   -9.9895 C   0  0  0  0  0  0  0  0  0  0  0  0
   23.5357   -5.4152  -10.1004 C   0  0  0  0  0  0  0  0  0  0  0  0
   23.5021   -6.3678   -9.1395 O   0  0  0  0  0  0  0  0  0  0  0  0
   24.2735   -5.7348  -11.2334 C   0  0  0  0  0  0  0  0  0  0  0  0
   24.3991   -4.8369  -12.2786 C   0  0  0  0  0  0  0  0  0  0  0  0
   23.8165   -3.5692  -12.2061 C   0  0  0  0  0  0  0  0  0  0  0  0
   23.9765   -2.7140  -13.3115 C   0  0  0  0  0  0  0  0  0  0  0  0
   23.4285   -1.4396  -13.2994 C   0  0  0  0  0  0  0  0  0  0  0  0
   22.7409   -1.0036  -12.1803 C   0  0  0  0  0  0  0  0  0  0  0  0
   22.5371   -1.8226  -11.0642 C   0  0  0  0  0  0  0  0  0  0  0  0
   23.0640   -3.1671  -11.0489 C   0  0  0  0  0  0  0  0  0  0  0  0
   21.6095   -1.0263   -9.7402 S   0  0  0  0  0  0  0  0  0  0  0  0
   20.3666   -1.8784   -9.4476 O   0  0  0  0  0  0  0  0  0  0  0  0
   22.3476   -1.0655   -8.3880 O   0  0  0  0  0  0  0  0  0  0  0  0
   20.9213    0.5549   -9.8396 O   0  0  0  0  0  0  0  0  0  0  0  0
   21.6043    1.8085  -11.3008 Na  0  0  0  0  0  0  0  0  0  0  0  0
   23.5651   -0.3300  -14.7061 S   0  0  0  0  0  0  0  0  0  0  0  0
   24.2006   -0.9562  -15.9567 O   0  0  0  0  0  0  0  0  0  0  0  0
   22.1617    0.0110  -15.2307 O   0  0  0  0  0  0  0  0  0  0  0  0
   24.3130    1.1985  -14.4922 O   0  0  0  0  0  0  0  0  0  0  0  0
   26.1966    0.7397  -13.8910 Na  0  0  0  0  0  0  0  0  0  0  0  0
   19.6668   -5.7652   -6.8014 C   0  0  0  0  0  0  0  0  0  0  0  0
   19.8913   -7.1850   -7.2544 C   0  0  0  0  0  0  0  0  0  0  0  0
   18.6435   -5.5596   -5.8644 C   0  0  0  0  0  0  0  0  0  0  0  0
   11.1769   -0.9596   -1.4167 C   0  0  0  0  0  0  0  0  0  0  0  0
    9.9146   -0.7608   -0.8536 C   0  0  0  0  0  0  0  0  0  0  0  0
   10.5903   -7.5459    3.8222 H   0  0  0  0  0  0  0  0  0  0  0  0
   10.6239   -6.3313    5.1544 H   0  0  0  0  0  0  0  0  0  0  0  0
   11.8094   -6.2216    3.7916 H   0  0  0  0  0  0  0  0  0  0  0  0
    8.8045   -7.1952    2.2776 H   0  0  0  0  0  0  0  0  0  0  0  0
    7.3012   -5.7119    1.0193 H   0  0  0  0  0  0  0  0  0  0  0  0
    9.1103   -2.2800    2.8834 H   0  0  0  0  0  0  0  0  0  0  0  0
   10.6210   -3.7592    4.1503 H   0  0  0  0  0  0  0  0  0  0  0  0
    8.9008   -4.0197   -0.7364 H   0  0  0  0  0  0  0  0  0  0  0  0
   11.0928   -4.3574   -1.7132 H   0  0  0  0  0  0  0  0  0  0  0  0
   15.0939   -1.6163   -3.2582 H   0  0  0  0  0  0  0  0  0  0  0  0
   17.1347   -1.9062   -4.4488 H   0  0  0  0  0  0  0  0  0  0  0  0
   16.5039   -6.2124   -4.3622 H   0  0  0  0  0  0  0  0  0  0  0  0
   14.6755   -7.1739   -3.3993 H   0  0  0  0  0  0  0  0  0  0  0  0
   13.2147   -6.1450   -3.5658 H   0  0  0  0  0  0  0  0  0  0  0  0
   14.0673   -6.2631   -1.9748 H   0  0  0  0  0  0  0  0  0  0  0  0
   18.8498   -2.1698   -5.6001 H   0  0  0  0  0  0  0  0  0  0  0  0
   20.6233   -2.5126   -7.1403 H   0  0  0  0  0  0  0  0  0  0  0  0
   23.1844   -6.2558   -8.2370 H   0  0  0  0  0  0  0  0  0  0  0  0
   24.7588   -6.6985  -11.3096 H   0  0  0  0  0  0  0  0  0  0  0  0
   24.9685   -5.1384  -13.1519 H   0  0  0  0  0  0  0  0  0  0  0  0
   24.5187   -3.0448  -14.1913 H   0  0  0  0  0  0  0  0  0  0  0  0
   22.3490   -0.0028  -12.1965 H   0  0  0  0  0  0  0  0  0  0  0  0
   20.9482   -7.4861   -7.1224 H   0  0  0  0  0  0  0  0  0  0  0  0
   19.5758   -7.2923   -8.3109 H   0  0  0  0  0  0  0  0  0  0  0  0
   19.2779   -7.9074   -6.6652 H   0  0  0  0  0  0  0  0  0  0  0  0
   18.1127   -6.4320   -5.5445 H   0  0  0  0  0  0  0  0  0  0  0  0
   11.8194   -0.1092   -1.6080 H   0  0  0  0  0  0  0  0  0  0  0  0
    9.5933    0.2411   -0.6086 H   0  0  0  0  0  0  0  0  0  0  0  0
  1  2  1  0  0  0  0
  1 57  1  0  0  0  0
  1 58  1  0  0  0  0
  1 59  1  0  0  0  0
  2  3  2  0  0  0  0
  2  7  1  0  0  0  0
  3  4  1  0  0  0  0
  3 60  1  0  0  0  0
  4  5  2  0  0  0  0
  4 61  1  0  0  0  0
  5  6  1  0  0  0  0
  5  8  1  0  0  0  0
  6  7  2  0  0  0  0
  6 62  1  0  0  0  0
  7 63  1  0  0  0  0
  8  9  2  0  0  0  0
  8 10  2  0  0  0  0
  8 11  1  0  0  0  0
 11 12  1  0  0  0  0
 12 13  2  0  0  0  0
 12 56  1  0  0  0  0
 13 14  1  0  0  0  0
 13 64  1  0  0  0  0
 14 15  2  0  0  0  0
 14 65  1  0  0  0  0
 15 16  1  0  0  0  0
 15 55  1  0  0  0  0
 16 17  2  3  0  0  0
 17 18  1  0  0  0  0
 18 19  2  0  0  0  0
 18 23  1  0  0  0  0
 19 20  1  0  0  0  0
 19 66  1  0  0  0  0
 20 21  2  0  0  0  0
 20 67  1  0  0  0  0
 21 22  1  0  0  0  0
 21 25  1  0  0  0  0
 22 23  2  0  0  0  0
 22 68  1  0  0  0  0
 23 24  1  0  0  0  0
 24 69  1  0  0  0  0
 24 70  1  0  0  0  0
 24 71  1  0  0  0  0
 25 26  2  0  0  0  0
 25 54  1  0  0  0  0
 26 27  1  0  0  0  0
 26 72  1  0  0  0  0
 27 28  2  0  0  0  0
 27 73  1  0  0  0  0
 28 29  1  0  0  0  0
 28 52  1  0  0  0  0
 29 30  2  3  0  0  0
 30 31  1  0  0  0  0
 31 32  2  0  0  0  0
 31 41  1  0  0  0  0
 32 33  1  0  0  0  0
 32 34  1  0  0  0  0
 33 74  1  0  0  0  0
 34 35  2  0  0  0  0
 34 75  1  0  0  0  0
 35 36  1  0  0  0  0
 35 76  1  0  0  0  0
 36 37  2  0  0  0  0
 36 41  1  0  0  0  0
 37 38  1  0  0  0  0
 37 77  1  0  0  0  0
 38 39  2  0  0  0  0
 38 47  1  0  0  0  0
 39 40  1  0  0  0  0
 39 78  1  0  0  0  0
 40 41  2  0  0  0  0
 40 42  1  0  0  0  0
 42 43  2  0  0  0  0
 42 44  2  0  0  0  0
 42 45  1  0  0  0  0
 45 46  1  0  0  0  0
 47 48  2  0  0  0  0
 47 49  2  0  0  0  0
 47 50  1  0  0  0  0
 50 51  1  0  0  0  0
 52 53  1  0  0  0  0
 52 54  2  0  0  0  0
 53 79  1  0  0  0  0
 53 80  1  0  0  0  0
 53 81  1  0  0  0  0
 54 82  1  0  0  0  0
 55 56  2  0  0  0  0
 55 83  1  0  0  0  0
 56 84  1  0  0  0  0
M  END
$$$$

 OpenBabel12201709243D

 55 58  0  0  0  0  0  0  0  0999 V2000
   -1.1735    0.6455    0.2470 C   0  0  0  0  0  0  0  0  0  0  0  0
    0.0676   -0.0391    0.4471 O   0  0  0  0  0  0  0  0  0  0  0  0
    1.1976    0.6822    0.1309 C   0  0  0  0  0  0  0  0  0  0  0  0
    1.2189    2.0866    0.1075 C   0  0  0  0  0  0  0  0  0  0  0  0
    2.3686    2.7731   -0.2821 C   0  0  0  0  0  0  0  0  0  0  0  0
    3.5167    2.0592   -0.6138 C   0  0  0  0  0  0  0  0  0  0  0  0
    3.5363    0.6658   -0.5104 C   0  0  0  0  0  0  0  0  0  0  0  0
    2.3760   -0.0454   -0.1622 C   0  0  0  0  0  0  0  0  0  0  0  0
    2.3983   -1.4619   -0.0821 N   0  0  0  0  0  0  0  0  0  0  0  0
    3.0492   -1.9799   -1.0239 N   0  0  0  0  0  0  0  0  0  0  0  0
    3.0664   -3.4043   -0.9847 C   0  0  0  0  0  0  0  0  0  0  0  0
    1.8964   -4.1414   -0.6787 C   0  0  0  0  0  0  0  0  0  0  0  0
    0.7164   -3.4741   -0.4199 O   0  0  0  0  0  0  0  0  0  0  0  0
    1.8995   -5.5380   -0.6652 C   0  0  0  0  0  0  0  0  0  0  0  0
    3.0789   -6.2109   -1.0166 C   0  0  0  0  0  0  0  0  0  0  0  0
    4.2405   -5.5241   -1.3826 C   0  0  0  0  0  0  0  0  0  0  0  0
    5.3727   -6.2549   -1.7825 C   0  0  0  0  0  0  0  0  0  0  0  0
    6.5408   -5.6080   -2.1712 C   0  0  0  0  0  0  0  0  0  0  0  0
    6.5926   -4.2206   -2.1396 C   0  0  0  0  0  0  0  0  0  0  0  0
    5.4714   -3.4814   -1.7350 C   0  0  0  0  0  0  0  0  0  0  0  0
    4.2577   -4.1066   -1.3601 C   0  0  0  0  0  0  0  0  0  0  0  0
    0.7296   -6.3986   -0.3107 C   0  0  0  0  0  0  0  0  0  0  0  0
    0.9046   -7.6156   -0.3298 O   0  0  0  0  0  0  0  0  0  0  0  0
   -0.4595   -5.7679    0.0064 N   0  0  0  0  0  0  0  0  0  0  0  0
   -1.6859   -6.3854    0.3341 C   0  0  0  0  0  0  0  0  0  0  0  0
   -1.8476   -7.7679    0.4356 C   0  0  0  0  0  0  0  0  0  0  0  0
   -3.0906   -8.3369    0.7144 C   0  0  0  0  0  0  0  0  0  0  0  0
   -4.2037   -7.5256    0.9080 C   0  0  0  0  0  0  0  0  0  0  0  0
   -4.0524   -6.1370    0.8451 C   0  0  0  0  0  0  0  0  0  0  0  0
   -2.7998   -5.5634    0.5582 C   0  0  0  0  0  0  0  0  0  0  0  0
   -5.2010   -5.2773    1.0464 N   0  0  0  0  0  0  0  0  0  0  0  0
   -5.2158   -4.1835    0.5185 O   0  0  0  0  0  0  0  0  0  0  0  0
   -6.2722   -5.6587    1.8400 O   0  0  0  0  0  0  0  0  0  0  0  0
    4.6937    2.7714   -1.0652 N   0  0  0  0  0  0  0  0  0  0  0  0
    4.8764    3.9084   -0.6842 O   0  0  0  0  0  0  0  0  0  0  0  0
    5.5801    2.2050   -1.9683 O   0  0  0  0  0  0  0  0  0  0  0  0
   -1.9898   -0.0661    0.4009 H   0  0  0  0  0  0  0  0  0  0  0  0
   -1.2489    1.0264   -0.7784 H   0  0  0  0  0  0  0  0  0  0  0  0
   -1.3096    1.4546    0.9734 H   0  0  0  0  0  0  0  0  0  0  0  0
    0.3543    2.6806    0.3891 H   0  0  0  0  0  0  0  0  0  0  0  0
    2.3590    3.8621   -0.3175 H   0  0  0  0  0  0  0  0  0  0  0  0
    4.4539    0.1106   -0.6886 H   0  0  0  0  0  0  0  0  0  0  0  0
    0.9304   -2.5154   -0.4223 H   0  0  0  0  0  0  0  0  0  0  0  0
    3.0888   -7.3001   -1.0223 H   0  0  0  0  0  0  0  0  0  0  0  0
    5.3462   -7.3440   -1.8099 H   0  0  0  0  0  0  0  0  0  0  0  0
    7.4000   -6.1880   -2.4970 H   0  0  0  0  0  0  0  0  0  0  0  0
    7.5069   -3.7132   -2.4376 H   0  0  0  0  0  0  0  0  0  0  0  0
    5.5558   -2.3973   -1.7241 H   0  0  0  0  0  0  0  0  0  0  0  0
   -0.4493   -4.7513   -0.0410 H   0  0  0  0  0  0  0  0  0  0  0  0
   -1.0154   -8.4501    0.2849 H   0  0  0  0  0  0  0  0  0  0  0  0
   -3.1800   -9.4199    0.7609 H   0  0  0  0  0  0  0  0  0  0  0  0
   -5.1657   -7.9968    1.0754 H   0  0  0  0  0  0  0  0  0  0  0  0
   -2.7077   -4.4808    0.4905 H   0  0  0  0  0  0  0  0  0  0  0  0
   -5.9343   -6.4436    2.2884 H   0  0  0  0  0  0  0  0  0  0  0  0
    5.1017    1.4243   -2.2767 H   0  0  0  0  0  0  0  0  0  0  0  0
  1  2  1  0  0  0  0
  1 37  1  0  0  0  0
  1 38  1  0  0  0  0
  1 39  1  0  0  0  0
  2  3  1  0  0  0  0
  3  4  2  0  0  0  0
  3  8  1  0  0  0  0
  4  5  1  0  0  0  0
  4 40  1  0  0  0  0
  5  6  2  0  0  0  0
  5 41  1  0  0  0  0
  6  7  1  0  0  0  0
  6 34  1  0  0  0  0
  7  8  2  0  0  0  0
  7 42  1  0  0  0  0
  8  9  1  0  0  0  0
  9 10  2  3  0  0  0
 10 11  1  0  0  0  0
 11 12  2  0  0  0  0
 11 21  1  0  0  0  0
 12 13  1  0  0  0  0
 12 14  1  0  0  0  0
 13 43  1  0  0  0  0
 14 15  2  0  0  0  0
 14 22  1  0  0  0  0
 15 16  1  0  0  0  0
 15 44  1  0  0  0  0
 16 17  2  0  0  0  0
 16 21  1  0  0  0  0
 17 18  1  0  0  0  0
 17 45  1  0  0  0  0
 18 19  2  0  0  0  0
 18 46  1  0  0  0  0
 19 20  1  0  0  0  0
 19 47  1  0  0  0  0
 20 21  2  0  0  0  0
 20 48  1  0  0  0  0
 22 23  2  0  0  0  0
 22 24  1  0  0  0  0
 24 25  1  0  0  0  0
 24 49  1  0  0  0  0
 25 26  2  0  0  0  0
 25 30  1  0  0  0  0
 26 27  1  0  0  0  0
 26 50  1  0  0  0  0
 27 28  2  0  0  0  0
 27 51  1  0  0  0  0
 28 29  1  0  0  0  0
 28 52  1  0  0  0  0
 29 30  2  0  0  0  0
 29 31  1  0  0  0  0
 30 53  1  0  0  0  0
 31 32  2  0  0  0  0
 31 33  1  0  0  0  0
 33 54  1  0  0  0  0
 34 35  2  0  0  0  0
 34 36  1  0  0  0  0
 36 55  1  0  0  0  0
M  END
$$$$

 OpenBabel12201709243D

 12 12  0  0  0  0  0  0  0  0999 V2000
    1.2031   -0.0854   -0.2107 O   0  0  0  0  0  0  0  0  0  0  0  0
    2.5569   -0.0349   -0.0449 C   0  0  0  0  0  0  0  0  0  0  0  0
    3.2075    1.1680    0.1074 C   0  0  0  0  0  0  0  0  0  0  0  0
    4.5716    1.0798    0.2683 C   0  0  0  0  0  0  0  0  0  0  0  0
    5.2447   -0.0847    0.2794 N   0  0  0  0  0  0  0  0  0  0  0  0
    4.4842   -1.1720    0.1195 C   0  0  0  0  0  0  0  0  0  0  0  0
    5.1690   -2.3451    0.1315 O   0  0  0  0  0  0  0  0  0  0  0  0
    3.1653   -1.2241   -0.0445 N   0  0  0  0  0  0  0  0  0  0  0  0
    0.8503    0.8148   -0.1768 H   0  0  0  0  0  0  0  0  0  0  0  0
    2.7005    2.1211    0.1029 H   0  0  0  0  0  0  0  0  0  0  0  0
    5.1805    1.9703    0.3970 H   0  0  0  0  0  0  0  0  0  0  0  0
    6.0636   -1.9934    0.2625 H   0  0  0  0  0  0  0  0  0  0  0  0
  1  2  1  0  0  0  0
  1  9  1  0  0  0  0
  2  3  2  0  0  0  0
  2  8  1  0  0  0  0
  3  4  1  0  0  0  0
  3 10  1  0  0  0  0
  4  5  2  0  0  0  0
  4 11  1  0  0  0  0
  5  6  1  0  0  0  0
  6  7  1  0  0  0  0
  6  8  2  0  0  0  0
  7 12  1  0  0  0  0
M  END
$$$$

 OpenBabel12201709243D

 12 11  0  0  0  0  0  0  0  0999 V2000
    1.0607    0.2177   -0.1079 C   0  0  0  0  0  0  0  0  0  0  0  0
    2.4472    0.2063    0.1747 O   0  0  0  0  0  0  0  0  0  0  0  0
    2.9133    0.8068    1.6152 S   0  0  0  0  0  0  0  0  0  0  0  0
    2.5507    2.2067    1.6719 O   0  0  0  0  0  0  0  0  0  0  0  0
    2.5283   -0.1282    2.6504 O   0  0  0  0  0  0  0  0  0  0  0  0
    4.6652    0.6830    1.3531 C   0  0  0  0  0  0  0  0  0  0  0  0
    0.9014   -0.2453   -1.0852 H   0  0  0  0  0  0  0  0  0  0  0  0
    0.6875    1.2452   -0.1440 H   0  0  0  0  0  0  0  0  0  0  0  0
    0.5098   -0.3543    0.6445 H   0  0  0  0  0  0  0  0  0  0  0  0
    4.9353    1.2851    0.4835 H   0  0  0  0  0  0  0  0  0  0  0  0
    4.9263   -0.3653    1.1969 H   0  0  0  0  0  0  0  0  0  0  0  0
    5.1689    1.0657    2.2431 H   0  0  0  0  0  0  0  0  0  0  0  0
  1  2  1  0  0  0  0
  1  7  1  0  0  0  0
  1  8  1  0  0  0  0
  1  9  1  0  0  0  0
  2  3  1  0  0  0  0
  3  4  2  0  0  0  0
  3  5  2  0  0  0  0
  3  6  1  0  0  0  0
  6 10  1  0  0  0  0
  6 11  1  0  0  0  0
  6 12  1  0  0  0  0
M  END
$$$$

 OpenBabel12201709243D

 24 25  0  0  0  0  0  0  0  0999 V2000
    3.0965    4.5759   -0.8720 O   0  0  0  0  0  0  0  0  0  0  0  0
    2.8711    3.2837   -0.4630 N   0  0  0  0  0  0  0  0  0  0  0  0
    2.2362    3.0964    0.5543 O   0  0  0  0  0  0  0  0  0  0  0  0
    3.3630    2.1996   -1.2097 C   0  0  0  0  0  0  0  0  0  0  0  0
    3.2001    0.8584   -0.9098 C   0  0  0  0  0  0  0  0  0  0  0  0
    3.8576    0.1228   -1.9266 C   0  0  0  0  0  0  0  0  0  0  0  0
    4.3982    1.0493   -2.7953 C   0  0  0  0  0  0  0  0  0  0  0  0
    5.1911    0.9243   -3.9873 C   0  0  0  0  0  0  0  0  0  0  0  0
    5.4713   -0.2384   -4.4904 N   0  0  0  0  0  0  0  0  0  0  0  0
    6.3184   -0.2690   -5.5712 N   0  0  0  0  0  0  0  0  0  0  0  0
    6.4208   -1.4632   -6.3753 C   0  0  0  0  0  0  0  0  0  0  0  0
    7.6944   -1.1712   -7.1422 C   0  0  0  0  0  0  0  0  0  0  0  0
    8.2388   -1.9215   -7.9374 O   0  0  0  0  0  0  0  0  0  0  0  0
    8.1527    0.0601   -6.8012 N   0  0  0  0  0  0  0  0  0  0  0  0
    7.4150    0.5836   -5.7866 C   0  0  0  0  0  0  0  0  0  0  0  0
    7.7209    1.5931   -5.1721 O   0  0  0  0  0  0  0  0  0  0  0  0
    4.0926    2.3101   -2.3657 O   0  0  0  0  0  0  0  0  0  0  0  0
    2.6341    5.0233   -0.1447 H   0  0  0  0  0  0  0  0  0  0  0  0
    2.6693    0.4667   -0.0512 H   0  0  0  0  0  0  0  0  0  0  0  0
    3.9436   -0.9519   -2.0136 H   0  0  0  0  0  0  0  0  0  0  0  0
    5.5190    1.8725   -4.4449 H   0  0  0  0  0  0  0  0  0  0  0  0
    5.5652   -1.5268   -7.0516 H   0  0  0  0  0  0  0  0  0  0  0  0
    6.5354   -2.3487   -5.7455 H   0  0  0  0  0  0  0  0  0  0  0  0
    9.0235    0.4523   -7.1160 H   0  0  0  0  0  0  0  0  0  0  0  0
  1  2  1  0  0  0  0
  1 18  1  0  0  0  0
  2  3  2  0  0  0  0
  2  4  1  0  0  0  0
  4  5  2  0  0  0  0
  4 17  1  0  0  0  0
  5  6  1  0  0  0  0
  5 19  1  0  0  0  0
  6  7  2  0  0  0  0
  6 20  1  0  0  0  0
  7  8  1  0  0  0  0
  7 17  1  0  0  0  0
  8  9  2  3  0  0  0
  8 21  1  0  0  0  0
  9 10  1  0  0  0  0
 10 11  1  0  0  0  0
 10 15  1  0  0  0  0
 11 12  1  0  0  0  0
 11 22  1  0  0  0  0
 11 23  1  0  0  0  0
 12 13  2  0  0  0  0
 12 14  1  0  0  0  0
 14 15  1  0  0  0  0
 14 24  1  0  0  0  0
 15 16  2  0  0  0  0
M  END
$$$$

 OpenBabel12201709243D

 23 22  0  0  1  0  0  0  0  0999 V2000
    4.8700   -1.3275   -2.6748 C   0  0  0  0  0  0  0  0  0  0  0  0
    4.5843   -0.7485   -1.3000 C   0  0  0  0  0  0  0  0  0  0  0  0
    5.3657   -1.7979   -0.0402 S   0  0  0  0  0  0  0  0  0  0  0  0
    4.9165   -0.8602    1.4540 C   0  0  0  0  0  0  0  0  0  0  0  0
    5.5048   -1.5004    2.7152 C   0  0  0  0  0  0  0  0  0  0  0  0
    7.0352   -1.6155    2.7437 C   0  0  3  0  0  0  0  0  0  0  0  0
    7.7163   -0.2858    2.7287 N   0  0  0  0  0  0  0  0  0  0  0  0
    7.5108   -2.3734    3.9994 C   0  0  0  0  0  0  0  0  0  0  0  0
    6.9341   -3.3001    4.5402 O   0  0  0  0  0  0  0  0  0  0  0  0
    8.7091   -1.8867    4.4241 O   0  0  0  0  0  0  0  0  0  0  0  0
    4.3977   -0.7115   -3.4464 H   0  0  0  0  0  0  0  0  0  0  0  0
    4.4736   -2.3442   -2.7735 H   0  0  0  0  0  0  0  0  0  0  0  0
    5.9453   -1.3531   -2.8841 H   0  0  0  0  0  0  0  0  0  0  0  0
    3.5047   -0.7113   -1.1261 H   0  0  0  0  0  0  0  0  0  0  0  0
    4.9889    0.2664   -1.2326 H   0  0  0  0  0  0  0  0  0  0  0  0
    3.8245   -0.8402    1.5370 H   0  0  0  0  0  0  0  0  0  0  0  0
    5.2638    0.1731    1.3525 H   0  0  0  0  0  0  0  0  0  0  0  0
    5.0632   -2.4985    2.8416 H   0  0  0  0  0  0  0  0  0  0  0  0
    5.1673   -0.9237    3.5869 H   0  0  0  0  0  0  0  0  0  0  0  0
    7.4130   -2.1966    1.8959 H   0  0  0  0  0  0  0  0  0  0  0  0
    7.2445    0.3267    3.4018 H   0  0  0  0  0  0  0  0  0  0  0  0
    7.5453    0.1441    1.8159 H   0  0  0  0  0  0  0  0  0  0  0  0
    8.9206   -1.1321    3.8197 H   0  0  0  0  0  0  0  0  0  0  0  0
  1  2  1  0  0  0  0
  1 11  1  0  0  0  0
  1 12  1  0  0  0  0
  1 13  1  0  0  0  0
  2  3  1  0  0  0  0
  2 14  1  0  0  0  0
  2 15  1  0  0  0  0
  3  4  1  0  0  0  0
  4  5  1  0  0  0  0
  4 16  1  0  0  0  0
  4 17  1  0  0  0  0
  5  6  1  0  0  0  0
  5 18  1  0  0  0  0
  5 19  1  0  0  0  0
  6  7  1  0  0  0  0
  6  8  1  0  0  0  0
  6 20  1  0  0  0  0
  7 21  1  0  0  0  0
  7 22  1  0  0  0  0
  8  9  2  0  0  0  0
  8 10  1  0  0  0  0
 10 23  1  0  0  0  0
M  END
$$$$

 OpenBabel12201709243D

 21 20  0  0  0  0  0  0  0  0999 V2000
    0.9241   -0.0969    0.0525 C   0  0  0  0  0  0  0  0  0  0  0  0
    2.4492   -0.1448    0.0362 N   0  0  0  0  0  0  0  0  0  0  0  0
    2.9010   -1.2728    0.9624 C   0  0  0  0  0  0  0  0  0  0  0  0
    2.9162   -0.4488   -1.3808 C   0  0  0  0  0  0  0  0  0  0  0  0
    2.9707    1.2338    0.5175 C   0  0  0  0  0  0  0  0  0  0  0  0
    4.4982    1.3671    0.5802 C   0  0  0  0  0  0  0  0  0  0  0  0
    5.0413    0.4790    1.5486 O   0  0  0  0  0  0  0  0  0  0  0  0
    0.5388   -1.0615   -0.2904 H   0  0  0  0  0  0  0  0  0  0  0  0
    0.5947    0.7033   -0.6167 H   0  0  0  0  0  0  0  0  0  0  0  0
    0.5959    0.1006    1.0765 H   0  0  0  0  0  0  0  0  0  0  0  0
    2.3329   -2.1728    0.7060 H   0  0  0  0  0  0  0  0  0  0  0  0
    2.6950   -0.9789    1.9956 H   0  0  0  0  0  0  0  0  0  0  0  0
    3.9624   -1.4726    0.8019 H   0  0  0  0  0  0  0  0  0  0  0  0
    2.4379   -1.3767   -1.7073 H   0  0  0  0  0  0  0  0  0  0  0  0
    4.0019   -0.5752   -1.3784 H   0  0  0  0  0  0  0  0  0  0  0  0
    2.6214    0.3817   -2.0275 H   0  0  0  0  0  0  0  0  0  0  0  0
    2.5446    1.3854    1.5173 H   0  0  0  0  0  0  0  0  0  0  0  0
    2.5558    1.9845   -0.1647 H   0  0  0  0  0  0  0  0  0  0  0  0
    4.7666    2.3916    0.8611 H   0  0  0  0  0  0  0  0  0  0  0  0
    4.9656    1.1640   -0.3869 H   0  0  0  0  0  0  0  0  0  0  0  0
    5.3604    1.0055    2.3053 H   0  0  0  0  0  0  0  0  0  0  0  0
  1  2  1  0  0  0  0
  1  8  1  0  0  0  0
  1  9  1  0  0  0  0
  1 10  1  0  0  0  0
  2  3  1  0  0  0  0
  2  4  1  0  0  0  0
  2  5  1  0  0  0  0
  3 11  1  0  0  0  0
  3 12  1  0  0  0  0
  3 13  1  0  0  0  0
  4 14  1  0  0  0  0
  4 15  1  0  0  0  0
  4 16  1  0  0  0  0
  5  6  1  0  0  0  0
  5 17  1  0  0  0  0
  5 18  1  0  0  0  0
  6  7  1  0  0  0  0
  6 19  1  0  0  0  0
  6 20  1  0  0  0  0
  7 21  1  0  0  0  0
M  END
$$$$

 OpenBabel12201709243D

  5  4  0  0  0  0  0  0  0  0999 V2000
    1.0503    0.0181    0.0929 Cl  0  0  0  0  0  0  0  0  0  0  0  0
    2.8216   -0.0075    0.0690 C   0  0  0  0  0  0  0  0  0  0  0  0
    3.4285   -1.5902    0.5843 Cl  0  0  0  0  0  0  0  0  0  0  0  0
    3.4285    0.3967   -1.5456 Cl  0  0  0  0  0  0  0  0  0  0  0  0
    3.1859    0.7460    0.7720 H   0  0  0  0  0  0  0  0  0  0  0  0
  1  2  1  0  0  0  0
  2  3  1  0  0  0  0
  2  4  1  0  0  0  0
  2  5  1  0  0  0  0
M  END
$$$$

 OpenBabel12201709243D

  8  7  0  0  0  0  0  0  0  0999 V2000
    0.9277    0.0436   -0.2721 Cl  0  0  0  0  0  0  0  0  0  0  0  0
    2.7476    0.0552   -0.1175 C   0  0  0  0  0  0  0  0  0  0  0  0
    3.2811   -1.4555   -0.9946 Cl  0  0  0  0  0  0  0  0  0  0  0  0
    3.2811    1.4189   -1.2091 Cl  0  0  0  0  0  0  0  0  0  0  0  0
    3.2814    0.1675    1.3881 C   0  0  0  0  0  0  0  0  0  0  0  0
    1.9633    0.2617    2.6491 Cl  0  0  0  0  0  0  0  0  0  0  0  0
    4.3168   -1.2374    1.9266 Cl  0  0  0  0  0  0  0  0  0  0  0  0
    4.3168    1.6369    1.7120 Cl  0  0  0  0  0  0  0  0  0  0  0  0
  1  2  1  0  0  0  0
  2  3  1  0  0  0  0
  2  4  1  0  0  0  0
  2  5  1  0  0  0  0
  5  6  1  0  0  0  0
  5  7  1  0  0  0  0
  5  8  1  0  0  0  0
M  END
$$$$

 OpenBabel12201709243D

 35 35  0  0  0  0  0  0  0  0999 V2000
    6.0563    1.2881   -1.5899 C   0  0  0  0  0  0  0  0  0  0  0  0
    4.9969    0.7165   -0.7551 N   0  0  0  0  0  0  0  0  0  0  0  0
    5.4792   -0.5438   -0.2136 N   0  0  0  0  0  0  0  0  0  0  0  0
    4.4625   -1.1286    0.6768 C   0  0  0  0  0  0  0  0  0  0  0  0
    4.9443   -2.4494    1.2421 C   0  0  0  0  0  0  0  0  0  0  0  0
    6.0526   -2.4953    2.1027 C   0  0  0  0  0  0  0  0  0  0  0  0
    6.5357   -3.7177    2.5768 C   0  0  0  0  0  0  0  0  0  0  0  0
    5.9138   -4.9139    2.2049 C   0  0  0  0  0  0  0  0  0  0  0  0
    4.7762   -4.8743    1.3915 C   0  0  0  0  0  0  0  0  0  0  0  0
    4.3007   -3.6501    0.9060 C   0  0  0  0  0  0  0  0  0  0  0  0
    6.4893   -6.1955    2.7072 C   0  0  0  0  0  0  0  0  0  0  0  0
    7.1652   -6.2080    3.7299 O   0  0  0  0  0  0  0  0  0  0  0  0
    6.2510   -7.3180    1.9379 N   0  0  0  0  0  0  0  0  0  0  0  0
    6.8616   -8.6029    2.2519 C   0  0  0  0  0  0  0  0  0  0  0  0
    5.9925   -9.7357    1.7156 C   0  0  0  0  0  0  0  0  0  0  0  0
    8.2729   -8.6874    1.6742 C   0  0  0  0  0  0  0  0  0  0  0  0
    5.7098    2.2302   -2.0255 H   0  0  0  0  0  0  0  0  0  0  0  0
    6.3273    0.6152   -2.4110 H   0  0  0  0  0  0  0  0  0  0  0  0
    6.9519    1.5078   -0.9982 H   0  0  0  0  0  0  0  0  0  0  0  0
    4.1814    0.5588   -1.3561 H   0  0  0  0  0  0  0  0  0  0  0  0
    6.3216   -0.3885    0.3474 H   0  0  0  0  0  0  0  0  0  0  0  0
    3.5329   -1.2889    0.1153 H   0  0  0  0  0  0  0  0  0  0  0  0
    4.2266   -0.4520    1.5080 H   0  0  0  0  0  0  0  0  0  0  0  0
    6.5573   -1.5791    2.3995 H   0  0  0  0  0  0  0  0  0  0  0  0
    7.4084   -3.7344    3.2273 H   0  0  0  0  0  0  0  0  0  0  0  0
    4.2357   -5.7805    1.1341 H   0  0  0  0  0  0  0  0  0  0  0  0
    3.4231   -3.6390    0.2627 H   0  0  0  0  0  0  0  0  0  0  0  0
    5.8998   -7.1885    0.9987 H   0  0  0  0  0  0  0  0  0  0  0  0
    6.9255   -8.6945    3.3427 H   0  0  0  0  0  0  0  0  0  0  0  0
    5.8866   -9.6753    0.6266 H   0  0  0  0  0  0  0  0  0  0  0  0
    4.9868   -9.6890    2.1473 H   0  0  0  0  0  0  0  0  0  0  0  0
    6.4233  -10.7113    1.9634 H   0  0  0  0  0  0  0  0  0  0  0  0
    8.2609   -8.5910    0.5827 H   0  0  0  0  0  0  0  0  0  0  0  0
    8.7398   -9.6455    1.9261 H   0  0  0  0  0  0  0  0  0  0  0  0
    8.9098   -7.8884    2.0682 H   0  0  0  0  0  0  0  0  0  0  0  0
  1  2  1  0  0  0  0
  1 17  1  0  0  0  0
  1 18  1  0  0  0  0
  1 19  1  0  0  0  0
  2  3  1  0  0  0  0
  2 20  1  0  0  0  0
  3  4  1  0  0  0  0
  3 21  1  0  0  0  0
  4  5  1  0  0  0  0
  4 22  1  0  0  0  0
  4 23  1  0  0  0  0
  5  6  2  0  0  0  0
  5 10  1  0  0  0  0
  6  7  1  0  0  0  0
  6 24  1  0  0  0  0
  7  8  2  0  0  0  0
  7 25  1  0  0  0  0
  8  9  1  0  0  0  0
  8 11  1  0  0  0  0
  9 10  2  0  0  0  0
  9 26  1  0  0  0  0
 10 27  1  0  0  0  0
 11 12  2  0  0  0  0
 11 13  1  0  0  0  0
 13 14  1  0  0  0  0
 13 28  1  0  0  0  0
 14 15  1  0  0  0  0
 14 16  1  0  0  0  0
 14 29  1  0  0  0  0
 15 30  1  0  0  0  0
 15 31  1  0  0  0  0
 15 32  1  0  0  0  0
 16 33  1  0  0  0  0
 16 34  1  0  0  0  0
 16 35  1  0  0  0  0
M  END
$$$$

 OpenBabel12201709243D

 22 24  0  0  0  0  0  0  0  0999 V2000
    1.1010   -0.1420    0.1732 N   0  0  0  0  0  0  0  0  0  0  0  0
    2.4899   -0.0591    0.0468 C   0  0  0  0  0  0  0  0  0  0  0  0
    3.0911    1.2006    0.0435 C   0  0  0  0  0  0  0  0  0  0  0  0
    4.4819    1.3133   -0.0192 C   0  0  0  0  0  0  0  0  0  0  0  0
    5.2124    0.1242   -0.0514 C   0  0  0  0  0  0  0  0  0  0  0  0
    6.5669   -0.0878   -0.0843 N   0  0  0  0  0  0  0  0  0  0  0  0
    6.7034   -1.3993   -0.0725 C   0  0  0  0  0  0  0  0  0  0  0  0
    7.8721   -2.2123   -0.0693 C   0  0  0  0  0  0  0  0  0  0  0  0
    7.7563   -3.5542   -0.0552 C   0  0  0  0  0  0  0  0  0  0  0  0
    6.4536   -4.2046   -0.0469 C   0  0  0  0  0  0  0  0  0  0  0  0
    5.3444   -3.4435   -0.0445 C   0  0  0  0  0  0  0  0  0  0  0  0
    5.4709   -2.0541   -0.0541 N   0  0  0  0  0  0  0  0  0  0  0  0
    4.5031   -1.0729   -0.0366 C   0  0  0  0  0  0  0  0  0  0  0  0
    3.1598   -1.2289    0.0052 N   0  0  0  0  0  0  0  0  0  0  0  0
    0.6163    0.4555   -0.4854 H   0  0  0  0  0  0  0  0  0  0  0  0
    0.8364   -1.1189    0.0839 H   0  0  0  0  0  0  0  0  0  0  0  0
    2.4827    2.0972    0.1044 H   0  0  0  0  0  0  0  0  0  0  0  0
    4.9798    2.2749   -0.0201 H   0  0  0  0  0  0  0  0  0  0  0  0
    8.8403   -1.7254   -0.0694 H   0  0  0  0  0  0  0  0  0  0  0  0
    8.6396   -4.1861   -0.0442 H   0  0  0  0  0  0  0  0  0  0  0  0
    6.4072   -5.2882   -0.0365 H   0  0  0  0  0  0  0  0  0  0  0  0
    4.3398   -3.8473   -0.0335 H   0  0  0  0  0  0  0  0  0  0  0  0
  1  2  1  0  0  0  0
  1 15  1  0  0  0  0
  1 16  1  0  0  0  0
  2  3  2  0  0  0  0
  2 14  1  0  0  0  0
  3  4  1  0  0  0  0
  3 17  1  0  0  0  0
  4  5  2  0  0  0  0
  4 18  1  0  0  0  0
  5  6  1  0  0  0  0
  5 13  1  0  0  0  0
  6  7  2  0  0  0  0
  7  8  1  0  0  0  0
  7 12  1  0  0  0  0
  8  9  2  0  0  0  0
  8 19  1  0  0  0  0
  9 10  1  0  0  0  0
  9 20  1  0  0  0  0
 10 11  2  0  0  0  0
 10 21  1  0  0  0  0
 11 12  1  0  0  0  0
 11 22  1  0  0  0  0
 12 13  1  0  0  0  0
 13 14  2  0  0  0  0
M  END
$$$$

 OpenBabel12201709243D

 25 27  0  0  0  0  0  0  0  0999 V2000
    1.0770   -0.0120    0.0583 C   0  0  0  0  0  0  0  0  0  0  0  0
    2.5805    0.0873    0.0482 C   0  0  0  0  0  0  0  0  0  0  0  0
    3.3426   -1.0330    0.0601 C   0  0  0  0  0  0  0  0  0  0  0  0
    4.7964   -0.9935    0.0615 C   0  0  0  0  0  0  0  0  0  0  0  0
    5.4185    0.1960    0.0561 C   0  0  0  0  0  0  0  0  0  0  0  0
    4.6526    1.3596    0.0442 N   0  0  0  0  0  0  0  0  0  0  0  0
    3.2576    1.3572    0.0334 C   0  0  0  0  0  0  0  0  0  0  0  0
    2.7633    2.5796    0.0170 N   0  0  0  0  0  0  0  0  0  0  0  0
    3.8571    3.4027    0.0394 C   0  0  0  0  0  0  0  0  0  0  0  0
    3.9390    4.7951    0.0639 C   0  0  0  0  0  0  0  0  0  0  0  0
    5.2174    5.3529    0.1218 C   0  0  0  0  0  0  0  0  0  0  0  0
    6.3428    4.5268    0.1227 C   0  0  0  0  0  0  0  0  0  0  0  0
    7.6031    5.1121    0.2649 N   0  0  0  0  0  0  0  0  0  0  0  0
    6.3047    3.1785    0.0817 N   0  0  0  0  0  0  0  0  0  0  0  0
    5.0463    2.6809    0.0502 C   0  0  0  0  0  0  0  0  0  0  0  0
    0.7253   -1.0488    0.0638 H   0  0  0  0  0  0  0  0  0  0  0  0
    0.6613    0.4783   -0.8283 H   0  0  0  0  0  0  0  0  0  0  0  0
    0.6723    0.4838    0.9474 H   0  0  0  0  0  0  0  0  0  0  0  0
    2.8846   -2.0197    0.0741 H   0  0  0  0  0  0  0  0  0  0  0  0
    5.3459   -1.9299    0.0730 H   0  0  0  0  0  0  0  0  0  0  0  0
    6.4949    0.3114    0.0600 H   0  0  0  0  0  0  0  0  0  0  0  0
    3.0454    5.4071    0.0660 H   0  0  0  0  0  0  0  0  0  0  0  0
    5.3294    6.4305    0.1804 H   0  0  0  0  0  0  0  0  0  0  0  0
    7.7458    5.8984   -0.3565 H   0  0  0  0  0  0  0  0  0  0  0  0
    8.3054    4.3863    0.1566 H   0  0  0  0  0  0  0  0  0  0  0  0
  1  2  1  0  0  0  0
  1 16  1  0  0  0  0
  1 17  1  0  0  0  0
  1 18  1  0  0  0  0
  2  3  2  0  0  0  0
  2  7  1  0  0  0  0
  3  4  1  0  0  0  0
  3 19  1  0  0  0  0
  4  5  2  0  0  0  0
  4 20  1  0  0  0  0
  5  6  1  0  0  0  0
  5 21  1  0  0  0  0
  6  7  1  0  0  0  0
  6 15  1  0  0  0  0
  7  8  2  0  0  0  0
  8  9  1  0  0  0  0
  9 10  2  0  0  0  0
  9 15  1  0  0  0  0
 10 11  1  0  0  0  0
 10 22  1  0  0  0  0
 11 12  2  0  0  0  0
 11 23  1  0  0  0  0
 12 13  1  0  0  0  0
 12 14  1  0  0  0  0
 13 24  1  0  0  0  0
 13 25  1  0  0  0  0
 14 15  2  0  0  0  0
M  END
$$$$

 OpenBabel12201709243D

 48 51  0  0  1  0  0  0  0  0999 V2000
    1.4694   -0.5486    1.2362 C   0  0  0  0  0  0  0  0  0  0  0  0
    2.7930    0.1949    0.9340 C   0  0  3  0  0  0  0  0  0  0  0  0
    2.3934    1.4362    0.0953 C   0  0  0  0  0  0  0  0  0  0  0  0
    2.4895    2.7216    0.9044 C   0  0  0  0  0  0  0  0  0  0  0  0
    3.9434    2.9034    1.3565 C   0  0  3  0  0  0  0  0  0  0  0  0
    4.4692    1.7477    2.2438 C   0  0  3  0  0  0  0  0  0  0  0  0
    4.9328    2.1913    3.6317 C   0  0  0  0  0  0  0  0  0  0  0  0
    5.9273    3.3438    3.4859 C   0  0  0  0  0  0  0  0  0  0  0  0
    5.4262    4.4442    2.5970 C   0  0  0  0  0  0  0  0  0  0  0  0
    4.4027    4.2968    1.7552 C   0  0  0  0  0  0  0  0  0  0  0  0
    3.8361    5.4151    0.9190 C   0  0  0  0  0  0  0  0  0  0  0  0
    4.4269    6.7943    1.1016 C   0  0  0  0  0  0  0  0  0  0  0  0
    5.5813    6.9146    2.0700 C   0  0  0  0  0  0  0  0  0  0  0  0
    6.0208    8.0330    2.3516 O   0  0  0  0  0  0  0  0  0  0  0  0
    6.2718    5.6759    2.5860 C   0  0  0  0  0  0  0  0  0  0  0  0
    3.5576    0.4909    2.2784 C   0  0  3  0  0  0  0  0  0  0  0  0
    4.4374   -0.7809    2.5257 C   0  0  0  0  0  0  0  0  0  0  0  0
    4.2593   -1.6760    1.3011 C   0  0  0  0  0  0  0  0  0  0  0  0
    3.8392   -0.7056    0.2061 C   0  0  3  0  0  0  0  0  0  0  0  0
    3.3185   -1.3491   -0.9368 O   0  0  0  0  0  0  0  0  0  0  0  0
    4.9792    0.2000   -0.2307 C   0  0  0  0  0  0  0  0  0  0  0  0
    5.9571    0.9767   -0.6055 C   0  0  0  0  0  0  0  0  0  0  0  0
    0.6709    0.1695    1.4794 H   0  0  0  0  0  0  0  0  0  0  0  0
    1.5453   -1.2254    2.0909 H   0  0  0  0  0  0  0  0  0  0  0  0
    1.1227   -1.1231    0.3699 H   0  0  0  0  0  0  0  0  0  0  0  0
    1.3779    1.3362   -0.3161 H   0  0  0  0  0  0  0  0  0  0  0  0
    3.0104    1.5401   -0.8062 H   0  0  0  0  0  0  0  0  0  0  0  0
    1.7993    2.7164    1.7508 H   0  0  0  0  0  0  0  0  0  0  0  0
    2.1787    3.5330    0.2356 H   0  0  0  0  0  0  0  0  0  0  0  0
    4.4976    2.8007    0.4140 H   0  0  0  0  0  0  0  0  0  0  0  0
    5.4233    1.4524    1.7930 H   0  0  0  0  0  0  0  0  0  0  0  0
    5.4215    1.3606    4.1541 H   0  0  0  0  0  0  0  0  0  0  0  0
    4.0750    2.4962    4.2454 H   0  0  0  0  0  0  0  0  0  0  0  0
    6.8834    2.9531    3.0811 H   0  0  0  0  0  0  0  0  0  0  0  0
    6.1503    3.7273    4.4911 H   0  0  0  0  0  0  0  0  0  0  0  0
    2.7627    5.4917    1.1293 H   0  0  0  0  0  0  0  0  0  0  0  0
    3.9171    5.1444   -0.1407 H   0  0  0  0  0  0  0  0  0  0  0  0
    4.7662    7.1717    0.1318 H   0  0  0  0  0  0  0  0  0  0  0  0
    3.6446    7.4731    1.4588 H   0  0  0  0  0  0  0  0  0  0  0  0
    6.6307    5.8999    3.5950 H   0  0  0  0  0  0  0  0  0  0  0  0
    7.1441    5.4938    1.9446 H   0  0  0  0  0  0  0  0  0  0  0  0
    2.8384    0.6030    3.0994 H   0  0  0  0  0  0  0  0  0  0  0  0
    4.1598   -1.3008    3.4475 H   0  0  0  0  0  0  0  0  0  0  0  0
    5.5027   -0.5316    2.6147 H   0  0  0  0  0  0  0  0  0  0  0  0
    3.4713   -2.4167    1.4895 H   0  0  0  0  0  0  0  0  0  0  0  0
    5.1602   -2.2467    1.0505 H   0  0  0  0  0  0  0  0  0  0  0  0
    2.9379   -2.2021   -0.6642 H   0  0  0  0  0  0  0  0  0  0  0  0
    6.7543    1.6097   -0.9199 H   0  0  0  0  0  0  0  0  0  0  0  0
  1  2  1  0  0  0  0
  1 23  1  0  0  0  0
  1 24  1  0  0  0  0
  1 25  1  0  0  0  0
  2  3  1  0  0  0  0
  2 16  1  0  0  0  0
  2 19  1  0  0  0  0
  3  4  1  0  0  0  0
  3 26  1  0  0  0  0
  3 27  1  0  0  0  0
  4  5  1  0  0  0  0
  4 28  1  0  0  0  0
  4 29  1  0  0  0  0
  5  6  1  0  0  0  0
  5 10  1  0  0  0  0
  5 30  1  0  0  0  0
  6  7  1  0  0  0  0
  6 16  1  0  0  0  0
  6 31  1  0  0  0  0
  7  8  1  0  0  0  0
  7 32  1  0  0  0  0
  7 33  1  0  0  0  0
  8  9  1  0  0  0  0
  8 34  1  0  0  0  0
  8 35  1  0  0  0  0
  9 10  2  0  0  0  0
  9 15  1  0  0  0  0
 10 11  1  0  0  0  0
 11 12  1  0  0  0  0
 11 36  1  0  0  0  0
 11 37  1  0  0  0  0
 12 13  1  0  0  0  0
 12 38  1  0  0  0  0
 12 39  1  0  0  0  0
 13 14  2  0  0  0  0
 13 15  1  0  0  0  0
 15 40  1  0  0  0  0
 15 41  1  0  0  0  0
 16 17  1  0  0  0  0
 16 42  1  0  0  0  0
 17 18  1  0  0  0  0
 17 43  1  0  0  0  0
 17 44  1  0  0  0  0
 18 19  1  0  0  0  0
 18 45  1  0  0  0  0
 18 46  1  0  0  0  0
 19 20  1  0  0  0  0
 19 21  1  0  0  0  0
 20 47  1  0  0  0  0
 21 22  3  0  0  0  0
 22 48  1  0  0  0  0
M  END
$$$$

 OpenBabel12201709243D

 26 28  0  0  0  0  0  0  0  0999 V2000
    1.0487   -0.0545   -0.0243 C   0  0  0  0  0  0  0  0  0  0  0  0
    2.5489   -0.0648   -0.0054 C   0  0  0  0  0  0  0  0  0  0  0  0
    3.2327   -1.2894    0.0403 C   0  0  0  0  0  0  0  0  0  0  0  0
    4.6353   -1.2634    0.0436 C   0  0  0  0  0  0  0  0  0  0  0  0
    5.6751   -2.2410    0.0511 C   0  0  0  0  0  0  0  0  0  0  0  0
    5.6956   -3.6508    0.0515 C   0  0  0  0  0  0  0  0  0  0  0  0
    6.9231   -4.3211    0.0412 C   0  0  0  0  0  0  0  0  0  0  0  0
    8.1206   -3.6088    0.0375 C   0  0  0  0  0  0  0  0  0  0  0  0
    8.1292   -2.2102    0.0433 C   0  0  0  0  0  0  0  0  0  0  0  0
    6.8925   -1.5543    0.0453 C   0  0  0  0  0  0  0  0  0  0  0  0
    6.5952   -0.2093    0.0368 N   0  0  0  0  0  0  0  0  0  0  0  0
    7.2654    0.5432    0.0250 H   0  0  0  0  0  0  0  0  0  0  0  0
    5.2419   -0.0173    0.0203 C   0  0  0  0  0  0  0  0  0  0  0  0
    4.6415    1.1854   -0.0194 N   0  0  0  0  0  0  0  0  0  0  0  0
    3.2952    1.1224   -0.0370 C   0  0  0  0  0  0  0  0  0  0  0  0
    2.6527    2.3595   -0.1505 N   0  0  0  0  0  0  0  0  0  0  0  0
    0.6413   -1.0711   -0.0279 H   0  0  0  0  0  0  0  0  0  0  0  0
    0.6796    0.4522   -0.9216 H   0  0  0  0  0  0  0  0  0  0  0  0
    0.6624    0.4513    0.8669 H   0  0  0  0  0  0  0  0  0  0  0  0
    2.7009   -2.2345    0.0575 H   0  0  0  0  0  0  0  0  0  0  0  0
    4.7667   -4.2135    0.0491 H   0  0  0  0  0  0  0  0  0  0  0  0
    6.9399   -5.4079    0.0316 H   0  0  0  0  0  0  0  0  0  0  0  0
    9.0649   -4.1495    0.0275 H   0  0  0  0  0  0  0  0  0  0  0  0
    9.0639   -1.6607    0.0369 H   0  0  0  0  0  0  0  0  0  0  0  0
    3.3763    3.0716   -0.0977 H   0  0  0  0  0  0  0  0  0  0  0  0
    1.9417    2.4821    0.5590 H   0  0  0  0  0  0  0  0  0  0  0  0
  1  2  1  0  0  0  0
  1 17  1  0  0  0  0
  1 18  1  0  0  0  0
  1 19  1  0  0  0  0
  2  3  2  0  0  0  0
  2 15  1  0  0  0  0
  3  4  1  0  0  0  0
  3 20  1  0  0  0  0
  4  5  1  0  0  0  0
  4 13  2  0  0  0  0
  5  6  2  0  0  0  0
  5 10  1  0  0  0  0
  6  7  1  0  0  0  0
  6 21  1  0  0  0  0
  7  8  2  0  0  0  0
  7 22  1  0  0  0  0
  8  9  1  0  0  0  0
  8 23  1  0  0  0  0
  9 10  2  0  0  0  0
  9 24  1  0  0  0  0
 10 11  1  0  0  0  0
 11 12  1  0  0  0  0
 11 13  1  0  0  0  0
 13 14  1  0  0  0  0
 14 15  2  0  0  0  0
 15 16  1  0  0  0  0
 16 25  1  0  0  0  0
 16 26  1  0  0  0  0
M  END
$$$$

 OpenBabel12201709243D

 12 11  0  0  0  0  0  0  0  0999 V2000
    0.9881   -0.0287    0.0581 C   0  0  0  0  0  0  0  0  0  0  0  0
    2.4393   -0.0294    0.0576 N   0  0  0  0  0  0  0  0  0  0  0  0
    3.1752    0.9382    0.7477 N   0  0  0  0  0  0  0  0  0  0  0  0
    2.4936    1.7761    1.3452 O   0  0  0  0  0  0  0  0  0  0  0  0
    3.0910   -1.0260   -0.6531 C   0  0  0  0  0  0  0  0  0  0  0  0
    2.5109   -1.9098   -1.2833 O   0  0  0  0  0  0  0  0  0  0  0  0
    4.4526   -1.0164   -0.6462 N   0  0  0  0  0  0  0  0  0  0  0  0
    0.5535    0.7875    0.6402 H   0  0  0  0  0  0  0  0  0  0  0  0
    0.6367   -0.9815    0.4680 H   0  0  0  0  0  0  0  0  0  0  0  0
    0.6367    0.0484   -0.9762 H   0  0  0  0  0  0  0  0  0  0  0  0
    5.0016   -0.3274   -0.1549 H   0  0  0  0  0  0  0  0  0  0  0  0
    4.9285   -1.7420   -1.1637 H   0  0  0  0  0  0  0  0  0  0  0  0
  1  2  1  0  0  0  0
  1  8  1  0  0  0  0
  1  9  1  0  0  0  0
  1 10  1  0  0  0  0
  2  3  1  0  0  0  0
  2  5  1  0  0  0  0
  3  4  2  0  0  0  0
  5  6  2  0  0  0  0
  5  7  1  0  0  0  0
  7 11  1  0  0  0  0
  7 12  1  0  0  0  0
M  END
$$$$

 OpenBabel12201709243D

 26 25  0  0  1  0  0  0  0  0999 V2000
    2.7476   -0.9338   -1.3702 O   0  0  0  0  0  0  0  0  0  0  0  0
    2.3723   -0.1071   -0.2661 C   0  0  0  0  0  0  0  0  0  0  0  0
    2.8547   -0.7537    1.0411 C   0  0  3  0  0  0  0  0  0  0  0  0
    2.3568   -2.0962    1.0926 O   0  0  0  0  0  0  0  0  0  0  0  0
    4.3905   -0.7608    1.1676 C   0  0  3  0  0  0  0  0  0  0  0  0
    4.9321    0.5739    1.1846 O   0  0  0  0  0  0  0  0  0  0  0  0
    4.9584   -1.5401    2.3836 C   0  0  3  0  0  0  0  0  0  0  0  0
    6.3966   -1.4890    2.2989 O   0  0  0  0  0  0  0  0  0  0  0  0
    4.5384   -1.0096    3.7730 C   0  0  3  0  0  0  0  0  0  0  0  0
    3.1200   -1.0303    3.9534 O   0  0  0  0  0  0  0  0  0  0  0  0
    5.2056   -1.8033    4.9123 C   0  0  0  0  0  0  0  0  0  0  0  0
    4.7431   -1.3626    6.1915 O   0  0  0  0  0  0  0  0  0  0  0  0
    2.4992   -0.4487   -2.1776 H   0  0  0  0  0  0  0  0  0  0  0  0
    1.2793   -0.0499   -0.2677 H   0  0  0  0  0  0  0  0  0  0  0  0
    2.7840    0.8976   -0.4007 H   0  0  0  0  0  0  0  0  0  0  0  0
    2.4086   -0.1805    1.8579 H   0  0  0  0  0  0  0  0  0  0  0  0
    2.4088   -2.4212    0.1690 H   0  0  0  0  0  0  0  0  0  0  0  0
    4.8151   -1.2353    0.2728 H   0  0  0  0  0  0  0  0  0  0  0  0
    4.5182    1.0539    1.9241 H   0  0  0  0  0  0  0  0  0  0  0  0
    4.6662   -2.5928    2.2959 H   0  0  0  0  0  0  0  0  0  0  0  0
    6.6146   -0.6697    1.8085 H   0  0  0  0  0  0  0  0  0  0  0  0
    4.8436    0.0376    3.8786 H   0  0  0  0  0  0  0  0  0  0  0  0
    2.8429   -1.9644    4.0320 H   0  0  0  0  0  0  0  0  0  0  0  0
    6.2934   -1.6906    4.8922 H   0  0  0  0  0  0  0  0  0  0  0  0
    4.9612   -2.8676    4.8384 H   0  0  0  0  0  0  0  0  0  0  0  0
    4.5842   -0.4044    6.1362 H   0  0  0  0  0  0  0  0  0  0  0  0
  1  2  1  0  0  0  0
  1 13  1  0  0  0  0
  2  3  1  0  0  0  0
  2 14  1  0  0  0  0
  2 15  1  0  0  0  0
  3  4  1  0  0  0  0
  3  5  1  0  0  0  0
  3 16  1  0  0  0  0
  4 17  1  0  0  0  0
  5  6  1  0  0  0  0
  5  7  1  0  0  0  0
  5 18  1  0  0  0  0
  6 19  1  0  0  0  0
  7  8  1  0  0  0  0
  7  9  1  0  0  0  0
  7 20  1  0  0  0  0
  8 21  1  0  0  0  0
  9 10  1  0  0  0  0
  9 11  1  0  0  0  0
  9 22  1  0  0  0  0
 10 23  1  0  0  0  0
 11 12  1  0  0  0  0
 11 24  1  0  0  0  0
 11 25  1  0  0  0  0
 12 26  1  0  0  0  0
M  END
$$$$

 OpenBabel12201709243D

 14 14  0  0  0  0  0  0  0  0999 V2000
    4.0623    0.7651    1.1119 Cl  0  0  0  0  0  0  0  0  0  0  0  0
    2.9608   -0.0007   -0.0569 C   0  0  0  0  0  0  0  0  0  0  0  0
    3.3545    0.2976   -1.4798 C   0  0  0  0  0  0  0  0  0  0  0  0
    3.3702    1.6079   -1.9586 C   0  0  0  0  0  0  0  0  0  0  0  0
    3.7175    1.8382   -3.2871 C   0  0  0  0  0  0  0  0  0  0  0  0
    4.0324    0.7613   -4.1053 C   0  0  0  0  0  0  0  0  0  0  0  0
    3.9858   -0.5089   -3.5586 C   0  0  0  0  0  0  0  0  0  0  0  0
    3.6520   -0.7635   -2.2742 N   0  0  0  0  0  0  0  0  0  0  0  0
    1.9458    0.3602    0.1362 H   0  0  0  0  0  0  0  0  0  0  0  0
    2.9820   -1.0786    0.1311 H   0  0  0  0  0  0  0  0  0  0  0  0
    3.1231    2.4421   -1.3088 H   0  0  0  0  0  0  0  0  0  0  0  0
    3.7435    2.8513   -3.6787 H   0  0  0  0  0  0  0  0  0  0  0  0
    4.3077    0.9075   -5.1436 H   0  0  0  0  0  0  0  0  0  0  0  0
    4.2220   -1.3842   -4.1569 H   0  0  0  0  0  0  0  0  0  0  0  0
  1  2  1  0  0  0  0
  2  3  1  0  0  0  0
  2  9  1  0  0  0  0
  2 10  1  0  0  0  0
  3  4  2  0  0  0  0
  3  8  1  0  0  0  0
  4  5  1  0  0  0  0
  4 11  1  0  0  0  0
  5  6  2  0  0  0  0
  5 12  1  0  0  0  0
  6  7  1  0  0  0  0
  6 13  1  0  0  0  0
  7  8  2  0  0  0  0
  7 14  1  0  0  0  0
M  END
$$$$

 OpenBabel12201709243D

 14 14  0  0  0  0  0  0  0  0999 V2000
    3.8887   -0.0899   -1.2453 Cl  0  0  0  0  0  0  0  0  0  0  0  0
    2.7536    0.0498    0.1106 C   0  0  0  0  0  0  0  0  0  0  0  0
    3.1818    1.1350    1.0470 C   0  0  0  0  0  0  0  0  0  0  0  0
    2.7466    2.4547    0.8912 C   0  0  0  0  0  0  0  0  0  0  0  0
    3.1798    3.4343    1.7799 C   0  0  0  0  0  0  0  0  0  0  0  0
    4.0408    3.0621    2.7982 C   0  0  0  0  0  0  0  0  0  0  0  0
    4.4881    1.8014    2.9781 N   0  0  0  0  0  0  0  0  0  0  0  0
    4.0570    0.8714    2.0961 C   0  0  0  0  0  0  0  0  0  0  0  0
    2.7071   -0.9170    0.6226 H   0  0  0  0  0  0  0  0  0  0  0  0
    1.7579    0.2537   -0.2966 H   0  0  0  0  0  0  0  0  0  0  0  0
    2.0773    2.7259    0.0781 H   0  0  0  0  0  0  0  0  0  0  0  0
    2.8571    4.4644    1.6784 H   0  0  0  0  0  0  0  0  0  0  0  0
    4.4074    3.7902    3.5160 H   0  0  0  0  0  0  0  0  0  0  0  0
    4.4530   -0.1271    2.2654 H   0  0  0  0  0  0  0  0  0  0  0  0
  1  2  1  0  0  0  0
  2  3  1  0  0  0  0
  2  9  1  0  0  0  0
  2 10  1  0  0  0  0
  3  4  2  0  0  0  0
  3  8  1  0  0  0  0
  4  5  1  0  0  0  0
  4 11  1  0  0  0  0
  5  6  2  0  0  0  0
  5 12  1  0  0  0  0
  6  7  1  0  0  0  0
  6 13  1  0  0  0  0
  7  8  2  0  0  0  0
  8 14  1  0  0  0  0
M  END
$$$$

 OpenBabel12201709243D

 17 17  0  0  0  0  0  0  0  0999 V2000
    3.1542    1.1822    0.6365 C   0  0  0  0  0  0  0  0  0  0  0  0
    2.5749   -0.1033    0.2188 N   0  0  0  0  0  0  0  0  0  0  0  0
    1.7544   -0.8614    0.9937 N   0  0  0  0  0  0  0  0  0  0  0  0
    1.3988   -0.3138    2.0421 O   0  0  0  0  0  0  0  0  0  0  0  0
    3.0979   -0.6312   -0.9959 C   0  0  0  0  0  0  0  0  0  0  0  0
    3.7034    0.1559   -1.9902 C   0  0  0  0  0  0  0  0  0  0  0  0
    4.2007   -0.4170   -3.1643 C   0  0  0  0  0  0  0  0  0  0  0  0
    4.0861   -1.7842   -3.3316 C   0  0  0  0  0  0  0  0  0  0  0  0
    3.5052   -2.5921   -2.4258 N   0  0  0  0  0  0  0  0  0  0  0  0
    3.0248   -2.0003   -1.2997 C   0  0  0  0  0  0  0  0  0  0  0  0
    2.7607    1.5240    1.6004 H   0  0  0  0  0  0  0  0  0  0  0  0
    2.9241    1.9801   -0.0769 H   0  0  0  0  0  0  0  0  0  0  0  0
    4.2407    1.0928    0.7536 H   0  0  0  0  0  0  0  0  0  0  0  0
    3.7834    1.2346   -1.8966 H   0  0  0  0  0  0  0  0  0  0  0  0
    4.6610    0.1945   -3.9324 H   0  0  0  0  0  0  0  0  0  0  0  0
    4.4642   -2.2767   -4.2226 H   0  0  0  0  0  0  0  0  0  0  0  0
    2.5724   -2.7071   -0.6077 H   0  0  0  0  0  0  0  0  0  0  0  0
  1  2  1  0  0  0  0
  1 11  1  0  0  0  0
  1 12  1  0  0  0  0
  1 13  1  0  0  0  0
  2  3  1  0  0  0  0
  2  5  1  0  0  0  0
  3  4  2  0  0  0  0
  5  6  2  0  0  0  0
  5 10  1  0  0  0  0
  6  7  1  0  0  0  0
  6 14  1  0  0  0  0
  7  8  2  0  0  0  0
  7 15  1  0  0  0  0
  8  9  1  0  0  0  0
  8 16  1  0  0  0  0
  9 10  2  0  0  0  0
 10 17  1  0  0  0  0
M  END
$$$$

 OpenBabel12201709243D

 17 16  0  0  0  0  0  0  0  0999 V2000
    1.0699    0.3263   -0.2593 C   0  0  0  0  0  0  0  0  0  0  0  0
    2.4372   -0.0844    0.1024 N   0  0  0  0  0  0  0  0  0  0  0  0
    3.1126    0.4303    1.1756 N   0  0  0  0  0  0  0  0  0  0  0  0
    2.4405    1.1801    1.8903 O   0  0  0  0  0  0  0  0  0  0  0  0
    3.1235   -0.8855   -0.8277 C   0  0  0  0  0  0  0  0  0  0  0  0
    2.5379   -1.7021   -1.6667 N   0  0  0  0  0  0  0  0  0  0  0  0
    4.4934   -0.6842   -0.8626 N   0  0  0  0  0  0  0  0  0  0  0  0
    5.1909   -1.1072   -1.9705 N   0  0  0  0  0  0  0  0  0  0  0  0
    6.3954   -0.3240   -2.1018 O   0  0  0  0  0  0  0  0  0  0  0  0
    5.5836   -2.4895   -1.8370 O   0  0  0  0  0  0  0  0  0  0  0  0
    0.6851    1.1377    0.3684 H   0  0  0  0  0  0  0  0  0  0  0  0
    0.3786   -0.5147   -0.1619 H   0  0  0  0  0  0  0  0  0  0  0  0
    1.0506    0.6945   -1.2928 H   0  0  0  0  0  0  0  0  0  0  0  0
    1.5365   -1.7497   -1.4830 H   0  0  0  0  0  0  0  0  0  0  0  0
    4.9749   -0.8249    0.0195 H   0  0  0  0  0  0  0  0  0  0  0  0
    6.0119    0.4709   -2.5106 H   0  0  0  0  0  0  0  0  0  0  0  0
    4.9444   -2.8808   -2.4607 H   0  0  0  0  0  0  0  0  0  0  0  0
  1  2  1  0  0  0  0
  1 11  1  0  0  0  0
  1 12  1  0  0  0  0
  1 13  1  0  0  0  0
  2  3  1  0  0  0  0
  2  5  1  0  0  0  0
  3  4  2  0  0  0  0
  5  6  2  0  0  0  0
  5  7  1  0  0  0  0
  6 14  1  0  0  0  0
  7  8  1  0  0  0  0
  7 15  1  0  0  0  0
  8  9  1  0  0  0  0
  8 10  1  0  0  0  0
  9 16  1  0  0  0  0
 10 17  1  0  0  0  0
M  END
$$$$

 OpenBabel12201709243D

 27 28  0  0  0  0  0  0  0  0999 V2000
    2.9658   -1.4038    2.5835 O   0  0  0  0  0  0  0  0  0  0  0  0
    3.3614   -0.6652    1.4926 C   0  0  0  0  0  0  0  0  0  0  0  0
    3.9726    0.5803    1.6843 C   0  0  0  0  0  0  0  0  0  0  0  0
    4.1530    1.2268    3.2724 Cl  0  0  0  0  0  0  0  0  0  0  0  0
    4.4285    1.3091    0.5973 C   0  0  0  0  0  0  0  0  0  0  0  0
    4.2853    0.7808   -0.6854 C   0  0  0  0  0  0  0  0  0  0  0  0
    4.9427    1.7167   -1.9869 Cl  0  0  0  0  0  0  0  0  0  0  0  0
    3.6369   -0.4570   -0.8894 C   0  0  0  0  0  0  0  0  0  0  0  0
    3.5063   -1.0775   -2.5017 Cl  0  0  0  0  0  0  0  0  0  0  0  0
    3.1313   -1.1931    0.2075 C   0  0  0  0  0  0  0  0  0  0  0  0
    2.3295   -2.4854    0.0455 C   0  0  0  0  0  0  0  0  0  0  0  0
    0.8322   -2.2698   -0.1766 C   0  0  0  0  0  0  0  0  0  0  0  0
    0.0023   -1.7532    0.8479 C   0  0  0  0  0  0  0  0  0  0  0  0
    0.4326   -1.5995    2.1381 O   0  0  0  0  0  0  0  0  0  0  0  0
   -1.3370   -1.4051    0.6036 C   0  0  0  0  0  0  0  0  0  0  0  0
   -2.3349   -0.7319    1.8444 Cl  0  0  0  0  0  0  0  0  0  0  0  0
   -1.8915   -1.5912   -0.6517 C   0  0  0  0  0  0  0  0  0  0  0  0
   -1.1315   -2.1851   -1.6547 C   0  0  0  0  0  0  0  0  0  0  0  0
   -1.9173   -2.4377   -3.1780 Cl  0  0  0  0  0  0  0  0  0  0  0  0
    0.2115   -2.5514   -1.4194 C   0  0  0  0  0  0  0  0  0  0  0  0
    1.0549   -3.4445   -2.6511 Cl  0  0  0  0  0  0  0  0  0  0  0  0
    3.2128   -0.8939    3.3844 H   0  0  0  0  0  0  0  0  0  0  0  0
    4.9042    2.2755    0.7446 H   0  0  0  0  0  0  0  0  0  0  0  0
    2.4579   -3.1300    0.9251 H   0  0  0  0  0  0  0  0  0  0  0  0
    2.7898   -3.0865   -0.7440 H   0  0  0  0  0  0  0  0  0  0  0  0
    1.3529   -1.8958    2.2540 H   0  0  0  0  0  0  0  0  0  0  0  0
   -2.9243   -1.3009   -0.8398 H   0  0  0  0  0  0  0  0  0  0  0  0
  1  2  1  0  0  0  0
  1 22  1  0  0  0  0
  2  3  2  0  0  0  0
  2 10  1  0  0  0  0
  3  4  1  0  0  0  0
  3  5  1  0  0  0  0
  5  6  2  0  0  0  0
  5 23  1  0  0  0  0
  6  7  1  0  0  0  0
  6  8  1  0  0  0  0
  8  9  1  0  0  0  0
  8 10  2  0  0  0  0
 10 11  1  0  0  0  0
 11 12  1  0  0  0  0
 11 24  1  0  0  0  0
 11 25  1  0  0  0  0
 12 13  2  0  0  0  0
 12 20  1  0  0  0  0
 13 14  1  0  0  0  0
 13 15  1  0  0  0  0
 14 26  1  0  0  0  0
 15 16  1  0  0  0  0
 15 17  2  0  0  0  0
 17 18  1  0  0  0  0
 17 27  1  0  0  0  0
 18 19  1  0  0  0  0
 18 20  2  0  0  0  0
 20 21  1  0  0  0  0
M  END
$$$$

 OpenBabel12201709243D

 12 12  0  0  0  0  0  0  0  0999 V2000
   -0.7616    1.1787   -0.0043 C   0  0  0  0  0  0  0  0  0  0  0  0
    0.6312    1.2536   -0.0069 C   0  0  0  0  0  0  0  0  0  0  0  0
    1.3924    0.0848   -0.0089 C   0  0  0  0  0  0  0  0  0  0  0  0
    0.7609   -1.1588   -0.0083 C   0  0  0  0  0  0  0  0  0  0  0  0
   -0.6320   -1.2337   -0.0057 C   0  0  0  0  0  0  0  0  0  0  0  0
   -1.3932   -0.0649   -0.0037 C   0  0  0  0  0  0  0  0  0  0  0  0
   -1.3547    2.0893   -0.0027 H   0  0  0  0  0  0  0  0  0  0  0  0
    1.1232    2.2225   -0.0073 H   0  0  0  0  0  0  0  0  0  0  0  0
    2.4776    0.1432   -0.0108 H   0  0  0  0  0  0  0  0  0  0  0  0
    1.3540   -2.0694   -0.0099 H   0  0  0  0  0  0  0  0  0  0  0  0
   -1.1240   -2.2026   -0.0053 H   0  0  0  0  0  0  0  0  0  0  0  0
   -2.4784   -0.1233   -0.0018 H   0  0  0  0  0  0  0  0  0  0  0  0
  1  2  2  0  0  0  0
  1  6  1  0  0  0  0
  1  7  1  0  0  0  0
  2  3  1  0  0  0  0
  2  8  1  0  0  0  0
  3  4  2  0  0  0  0
  3  9  1  0  0  0  0
  4  5  1  0  0  0  0
  4 10  1  0  0  0  0
  5  6  2  0  0  0  0
  5 11  1  0  0  0  0
  6 12  1  0  0  0  0
M  END
$$$$

 OpenBabel12201709243D

  8  7  0  0  0  0  0  0  0  0999 V2000
    1.0385   -0.0922   -0.0316 C   0  0  0  0  0  0  0  0  0  0  0  0
    2.5612   -0.0922   -0.0316 C   0  0  0  0  0  0  0  0  0  0  0  0
    3.1639   -0.1962    1.6456 Cl  0  0  0  0  0  0  0  0  0  0  0  0
    3.1639   -1.4927   -0.9604 Cl  0  0  0  0  0  0  0  0  0  0  0  0
    3.1638    1.4123   -0.7802 Cl  0  0  0  0  0  0  0  0  0  0  0  0
    0.6374   -1.0059    0.4229 H   0  0  0  0  0  0  0  0  0  0  0  0
    0.6374   -0.0291   -1.0501 H   0  0  0  0  0  0  0  0  0  0  0  0
    0.6374    0.7582    0.5324 H   0  0  0  0  0  0  0  0  0  0  0  0
  1  2  1  0  0  0  0
  1  6  1  0  0  0  0
  1  7  1  0  0  0  0
  1  8  1  0  0  0  0
  2  3  1  0  0  0  0
  2  4  1  0  0  0  0
  2  5  1  0  0  0  0
M  END
$$$$

 OpenBabel12201709243D

 43 45  0  0  1  0  0  0  0  0999 V2000
    0.8178   -0.1182    0.0409 C   0  0  0  0  0  0  0  0  0  0  0  0
    2.3302   -0.0124    0.2285 C   0  0  0  0  0  0  0  0  0  0  0  0
    2.6710    0.2091    1.7110 C   0  0  0  0  0  0  0  0  0  0  0  0
    3.1105   -1.6028   -0.3014 S   0  0  0  0  0  0  0  0  0  0  0  0
    4.7207   -0.8021   -0.6104 C   0  0  3  0  0  0  0  0  0  0  0  0
    5.1523   -0.6785   -2.0924 C   0  0  3  0  0  0  0  0  0  0  0  0
    6.3901   -1.4154   -2.4422 N   0  0  0  0  0  0  0  0  0  0  0  0
    6.2775   -2.7368   -2.8317 C   0  0  0  0  0  0  0  0  0  0  0  0
    5.1942   -3.3223   -2.8253 O   0  0  0  0  0  0  0  0  0  0  0  0
    7.5936   -3.4327   -3.2521 C   0  0  3  0  0  0  0  0  0  0  0  0
    7.4365   -4.8939   -3.1140 N   0  0  0  0  0  0  0  0  0  0  0  0
    7.9837   -3.0297   -4.6586 C   0  0  0  0  0  0  0  0  0  0  0  0
    9.2148   -2.3961   -4.8924 C   0  0  0  0  0  0  0  0  0  0  0  0
    9.5403   -1.9216   -6.1642 C   0  0  0  0  0  0  0  0  0  0  0  0
    8.6478   -2.0896   -7.2206 C   0  0  0  0  0  0  0  0  0  0  0  0
    7.4425   -2.7508   -7.0168 C   0  0  0  0  0  0  0  0  0  0  0  0
    7.1112   -3.2224   -5.7441 C   0  0  0  0  0  0  0  0  0  0  0  0
    5.2466    0.8332   -1.7454 C   0  0  0  0  0  0  0  0  0  0  0  0
    5.7033    1.8553   -2.2037 O   0  0  0  0  0  0  0  0  0  0  0  0
    4.4714    0.6758   -0.6280 N   0  0  0  0  0  0  0  0  0  0  0  0
    3.0211    0.9918   -0.7085 C   0  0  3  0  0  0  0  0  0  0  0  0
    2.6587    2.4464   -0.4160 C   0  0  0  0  0  0  0  0  0  0  0  0
    1.5114    2.8667   -0.4212 O   0  0  0  0  0  0  0  0  0  0  0  0
    3.7152    3.2510   -0.1744 O   0  0  0  0  0  0  0  0  0  0  0  0
    0.4042   -0.9677    0.5976 H   0  0  0  0  0  0  0  0  0  0  0  0
    0.5416   -0.2364   -1.0123 H   0  0  0  0  0  0  0  0  0  0  0  0
    0.3118    0.7764    0.4176 H   0  0  0  0  0  0  0  0  0  0  0  0
    2.2440   -0.5797    2.3412 H   0  0  0  0  0  0  0  0  0  0  0  0
    2.2687    1.1638    2.0650 H   0  0  0  0  0  0  0  0  0  0  0  0
    3.7512    0.2281    1.8988 H   0  0  0  0  0  0  0  0  0  0  0  0
    5.5060   -1.0637    0.1078 H   0  0  0  0  0  0  0  0  0  0  0  0
    4.3711   -0.8393   -2.8478 H   0  0  0  0  0  0  0  0  0  0  0  0
    7.2577   -0.9237   -2.6316 H   0  0  0  0  0  0  0  0  0  0  0  0
    8.3686   -3.1222   -2.5412 H   0  0  0  0  0  0  0  0  0  0  0  0
    6.6371   -5.1671   -3.6916 H   0  0  0  0  0  0  0  0  0  0  0  0
    7.1060   -5.0828   -2.1653 H   0  0  0  0  0  0  0  0  0  0  0  0
    9.9282   -2.2614   -4.0822 H   0  0  0  0  0  0  0  0  0  0  0  0
   10.4888   -1.4183   -6.3294 H   0  0  0  0  0  0  0  0  0  0  0  0
    8.8967   -1.7044   -8.2090 H   0  0  0  0  0  0  0  0  0  0  0  0
    6.7512   -2.8931   -7.8428 H   0  0  0  0  0  0  0  0  0  0  0  0
    6.1572   -3.7297   -5.6044 H   0  0  0  0  0  0  0  0  0  0  0  0
    2.7162    0.8333   -1.7549 H   0  0  0  0  0  0  0  0  0  0  0  0
    4.5734    2.7999   -0.3175 H   0  0  0  0  0  0  0  0  0  0  0  0
  1  2  1  0  0  0  0
  1 25  1  0  0  0  0
  1 26  1  0  0  0  0
  1 27  1  0  0  0  0
  2  3  1  0  0  0  0
  2  4  1  0  0  0  0
  2 21  1  0  0  0  0
  3 28  1  0  0  0  0
  3 29  1  0  0  0  0
  3 30  1  0  0  0  0
  4  5  1  0  0  0  0
  5  6  1  0  0  0  0
  5 20  1  0  0  0  0
  5 31  1  0  0  0  0
  6  7  1  0  0  0  0
  6 18  1  0  0  0  0
  6 32  1  0  0  0  0
  7  8  1  0  0  0  0
  7 33  1  0  0  0  0
  8  9  2  0  0  0  0
  8 10  1  0  0  0  0
 10 11  1  0  0  0  0
 10 12  1  0  0  0  0
 10 34  1  0  0  0  0
 11 35  1  0  0  0  0
 11 36  1  0  0  0  0
 12 13  2  0  0  0  0
 12 17  1  0  0  0  0
 13 14  1  0  0  0  0
 13 37  1  0  0  0  0
 14 15  2  0  0  0  0
 14 38  1  0  0  0  0
 15 16  1  0  0  0  0
 15 39  1  0  0  0  0
 16 17  2  0  0  0  0
 16 40  1  0  0  0  0
 17 41  1  0  0  0  0
 18 19  2  0  0  0  0
 18 20  1  0  0  0  0
 20 21  1  0  0  0  0
 21 22  1  0  0  0  0
 21 42  1  0  0  0  0
 22 23  2  0  0  0  0
 22 24  1  0  0  0  0
 24 43  1  0  0  0  0
M  END
$$$$

 OpenBabel12201709243D

 27 31  0  0  1  0  0  0  0  0999 V2000
    1.1906    0.1859   -0.1452 Cl  0  0  0  0  0  0  0  0  0  0  0  0
    2.8515    0.3839   -0.4217 C   0  0  0  0  0  0  0  0  0  0  0  0
    3.7230    1.1656    0.2342 C   0  0  0  0  0  0  0  0  0  0  0  0
    3.3949    2.2364    1.5031 Cl  0  0  0  0  0  0  0  0  0  0  0  0
    5.0881    0.9968   -0.4461 C   0  0  3  0  0  0  0  0  0  0  0  0
    6.2683    2.2518   -0.1219 Cl  0  0  0  0  0  0  0  0  0  0  0  0
    5.5922   -0.4467   -0.0775 C   0  0  3  0  0  0  0  0  0  0  0  0
    6.8183   -1.1847   -0.7391 C   0  0  3  0  0  0  0  0  0  0  0  0
    6.2493   -2.0087   -1.9370 C   0  0  0  0  0  0  0  0  0  0  0  0
    5.1474   -2.6375   -1.1078 C   0  0  3  0  0  0  0  0  0  0  0  0
    5.9460   -3.2576    0.0415 C   0  0  3  0  0  0  0  0  0  0  0  0
    7.2903   -3.6582   -0.2503 O   0  0  0  0  0  0  0  0  0  0  0  0
    7.1113   -2.3290    0.2488 C   0  0  3  0  0  0  0  0  0  0  0  0
    4.4262   -1.3749   -0.5728 C   0  0  3  0  0  0  0  0  0  0  0  0
    3.6410   -0.3526   -1.4955 C   0  0  3  0  0  0  0  0  0  0  0  0
    2.7336   -1.0804   -2.7963 Cl  0  0  0  0  0  0  0  0  0  0  0  0
    4.5712    0.8770   -1.8953 C   0  0  0  0  0  0  0  0  0  0  0  0
    5.8599    0.7763   -3.1269 Cl  0  0  0  0  0  0  0  0  0  0  0  0
    3.6278    2.3399   -2.5038 Cl  0  0  0  0  0  0  0  0  0  0  0  0
    5.6843   -0.4995    1.0187 H   0  0  0  0  0  0  0  0  0  0  0  0
    7.6897   -0.5652   -0.9561 H   0  0  0  0  0  0  0  0  0  0  0  0
    6.9680   -2.7324   -2.3405 H   0  0  0  0  0  0  0  0  0  0  0  0
    5.8183   -1.5213   -2.7968 H   0  0  0  0  0  0  0  0  0  0  0  0
    4.5066   -3.3524   -1.6266 H   0  0  0  0  0  0  0  0  0  0  0  0
    5.4166   -3.6864    0.8722 H   0  0  0  0  0  0  0  0  0  0  0  0
    7.4815   -2.0755    1.2262 H   0  0  0  0  0  0  0  0  0  0  0  0
    3.8086   -1.6951    0.2788 H   0  0  0  0  0  0  0  0  0  0  0  0
  1  2  1  0  0  0  0
  2  3  2  0  0  0  0
  2 15  1  0  0  0  0
  3  4  1  0  0  0  0
  3  5  1  0  0  0  0
  5  6  1  0  0  0  0
  5  7  1  0  0  0  0
  5 17  1  0  0  0  0
  7  8  1  0  0  0  0
  7 14  1  0  0  0  0
  7 20  1  0  0  0  0
  8  9  1  0  0  0  0
  8 13  1  0  0  0  0
  8 21  1  0  0  0  0
  9 10  1  0  0  0  0
  9 22  1  0  0  0  0
  9 23  1  0  0  0  0
 10 11  1  0  0  0  0
 10 14  1  0  0  0  0
 10 24  1  0  0  0  0
 11 12  1  0  0  0  0
 11 13  1  0  0  0  0
 11 25  1  0  0  0  0
 12 13  1  0  0  0  0
 13 26  1  0  0  0  0
 14 15  1  0  0  0  0
 14 27  1  0  0  0  0
 15 16  1  0  0  0  0
 15 17  1  0  0  0  0
 17 18  1  0  0  0  0
 17 19  1  0  0  0  0
M  END
$$$$

 OpenBabel12201709243D

 49 52  0  0  1  0  0  0  0  0999 V2000
    2.6018   -0.1036   -0.8340 C   0  0  0  0  0  0  0  0  0  0  0  0
    3.2484    0.1344    0.4120 O   0  0  0  0  0  0  0  0  0  0  0  0
    3.7885   -0.9462    1.0581 C   0  0  0  0  0  0  0  0  0  0  0  0
    3.5334   -2.2786    0.7142 C   0  0  0  0  0  0  0  0  0  0  0  0
    4.0357   -3.3093    1.5160 C   0  0  0  0  0  0  0  0  0  0  0  0
    4.7090   -3.0295    2.7282 C   0  0  0  0  0  0  0  0  0  0  0  0
    4.4111   -3.9655    3.9166 C   0  0  3  0  0  0  0  0  0  0  0  0
    2.9433   -3.5967    4.1571 C   0  0  0  0  0  0  0  0  0  0  0  0
    2.3456   -3.5797    5.5425 C   0  0  0  0  0  0  0  0  0  0  0  0
    3.0182   -4.3486    6.6773 C   0  0  3  0  0  0  0  0  0  0  0  0
    2.0117   -5.5297    6.9898 C   0  0  0  0  0  0  0  0  0  0  0  0
    4.4357   -4.8431    6.3316 C   0  0  3  0  0  0  0  0  0  0  0  0
    4.9505   -5.2527    7.7760 C   0  0  0  0  0  0  0  0  0  0  0  0
    4.0117   -4.5887    8.8577 C   0  0  0  0  0  0  0  0  0  0  0  0
    3.2880   -3.5470    8.0129 C   0  0  3  0  0  0  0  0  0  0  0  0
    4.2294   -2.4743    7.8934 O   0  0  0  0  0  0  0  0  0  0  0  0
    2.0736   -2.8893    8.5141 C   0  0  0  0  0  0  0  0  0  0  0  0
    1.1707   -2.1329    8.6457 C   0  0  0  0  0  0  0  0  0  0  0  0
    5.2336   -3.8795    5.2384 C   0  0  3  0  0  0  0  0  0  0  0  0
    5.5191   -2.3706    5.4989 C   0  0  0  0  0  0  0  0  0  0  0  0
    5.8605   -1.4538    4.2803 C   0  0  0  0  0  0  0  0  0  0  0  0
    5.0736   -1.7117    3.0255 C   0  0  0  0  0  0  0  0  0  0  0  0
    4.6016   -0.6796    2.1738 C   0  0  0  0  0  0  0  0  0  0  0  0
    2.3215    0.8606   -1.2701 H   0  0  0  0  0  0  0  0  0  0  0  0
    1.6720   -0.6835   -0.7110 H   0  0  0  0  0  0  0  0  0  0  0  0
    3.2770   -0.6006   -1.5370 H   0  0  0  0  0  0  0  0  0  0  0  0
    2.8650   -2.5396   -0.0940 H   0  0  0  0  0  0  0  0  0  0  0  0
    3.6984   -4.3215    1.3065 H   0  0  0  0  0  0  0  0  0  0  0  0
    4.4980   -5.0019    3.5477 H   0  0  0  0  0  0  0  0  0  0  0  0
    2.3217   -4.2295    3.4903 H   0  0  0  0  0  0  0  0  0  0  0  0
    2.7271   -2.5821    3.8107 H   0  0  0  0  0  0  0  0  0  0  0  0
    2.1989   -2.5364    5.8389 H   0  0  0  0  0  0  0  0  0  0  0  0
    1.3430   -3.9610    5.3706 H   0  0  0  0  0  0  0  0  0  0  0  0
    2.1480   -6.3661    6.3005 H   0  0  0  0  0  0  0  0  0  0  0  0
    0.9694   -5.1872    6.8948 H   0  0  0  0  0  0  0  0  0  0  0  0
    2.0527   -5.9256    7.9996 H   0  0  0  0  0  0  0  0  0  0  0  0
    4.3704   -5.8008    5.7991 H   0  0  0  0  0  0  0  0  0  0  0  0
    6.0035   -5.0457    7.9574 H   0  0  0  0  0  0  0  0  0  0  0  0
    4.8085   -6.3345    7.9014 H   0  0  0  0  0  0  0  0  0  0  0  0
    4.5991   -4.1682    9.6770 H   0  0  0  0  0  0  0  0  0  0  0  0
    3.3438   -5.3085    9.3230 H   0  0  0  0  0  0  0  0  0  0  0  0
    5.1026   -2.7704    8.2053 H   0  0  0  0  0  0  0  0  0  0  0  0
    0.4396   -1.3501    8.6058 H   0  0  0  0  0  0  0  0  0  0  0  0
    6.2129   -4.3495    5.0690 H   0  0  0  0  0  0  0  0  0  0  0  0
    6.3316   -2.2724    6.2284 H   0  0  0  0  0  0  0  0  0  0  0  0
    4.6293   -1.8953    5.9152 H   0  0  0  0  0  0  0  0  0  0  0  0
    6.9228   -1.5320    4.0379 H   0  0  0  0  0  0  0  0  0  0  0  0
    5.6904   -0.4106    4.5966 H   0  0  0  0  0  0  0  0  0  0  0  0
    4.7895    0.3667    2.4289 H   0  0  0  0  0  0  0  0  0  0  0  0
  1  2  1  0  0  0  0
  1 24  1  0  0  0  0
  1 25  1  0  0  0  0
  1 26  1  0  0  0  0
  2  3  1  0  0  0  0
  3  4  2  0  0  0  0
  3 23  1  0  0  0  0
  4  5  1  0  0  0  0
  4 27  1  0  0  0  0
  5  6  2  0  0  0  0
  5 28  1  0  0  0  0
  6  7  1  0  0  0  0
  6 22  1  0  0  0  0
  7  8  1  0  0  0  0
  7 19  1  0  0  0  0
  7 29  1  0  0  0  0
  8  9  1  0  0  0  0
  8 30  1  0  0  0  0
  8 31  1  0  0  0  0
  9 10  1  0  0  0  0
  9 32  1  0  0  0  0
  9 33  1  0  0  0  0
 10 11  1  0  0  0  0
 10 12  1  0  0  0  0
 10 15  1  0  0  0  0
 11 34  1  0  0  0  0
 11 35  1  0  0  0  0
 11 36  1  0  0  0  0
 12 13  1  0  0  0  0
 12 19  1  0  0  0  0
 12 37  1  0  0  0  0
 13 14  1  0  0  0  0
 13 38  1  0  0  0  0
 13 39  1  0  0  0  0
 14 15  1  0  0  0  0
 14 40  1  0  0  0  0
 14 41  1  0  0  0  0
 15 16  1  0  0  0  0
 15 17  1  0  0  0  0
 16 42  1  0  0  0  0
 17 18  3  0  0  0  0
 18 43  1  0  0  0  0
 19 20  1  0  0  0  0
 19 44  1  0  0  0  0
 20 21  1  0  0  0  0
 20 45  1  0  0  0  0
 20 46  1  0  0  0  0
 21 22  1  0  0  0  0
 21 47  1  0  0  0  0
 21 48  1  0  0  0  0
 22 23  2  0  0  0  0
 23 49  1  0  0  0  0
M  END
$$$$

 OpenBabel12201709243D

 36 37  0  0  0  0  0  0  0  0999 V2000
    2.8274   -0.1003   -1.3319 C   0  0  0  0  0  0  0  0  0  0  0  0
    2.4429   -0.2247    0.0318 O   0  0  0  0  0  0  0  0  0  0  0  0
    3.1458    0.5229    0.9350 C   0  0  0  0  0  0  0  0  0  0  0  0
    4.0849    1.5048    0.6314 C   0  0  0  0  0  0  0  0  0  0  0  0
    4.7388    2.1986    1.6592 C   0  0  0  0  0  0  0  0  0  0  0  0
    4.4797    1.9201    3.0142 C   0  0  0  0  0  0  0  0  0  0  0  0
    3.5384    0.9207    3.2994 C   0  0  0  0  0  0  0  0  0  0  0  0
    2.8686    0.2459    2.2717 C   0  0  0  0  0  0  0  0  0  0  0  0
    5.2562    2.6840    4.1033 C   0  0  0  0  0  0  0  0  0  0  0  0
    4.3636    3.5932    4.9678 C   0  0  0  0  0  0  0  0  0  0  0  0
    3.3328    3.0885    5.7746 C   0  0  0  0  0  0  0  0  0  0  0  0
    2.5459    3.9352    6.5568 C   0  0  0  0  0  0  0  0  0  0  0  0
    2.7882    5.3044    6.5809 C   0  0  0  0  0  0  0  0  0  0  0  0
    1.9305    6.0294    7.3581 O   0  0  0  0  0  0  0  0  0  0  0  0
    2.4799    7.1921    7.9669 C   0  0  0  0  0  0  0  0  0  0  0  0
    3.8109    5.8287    5.7952 C   0  0  0  0  0  0  0  0  0  0  0  0
    4.5900    4.9820    4.9936 C   0  0  0  0  0  0  0  0  0  0  0  0
    6.3867    1.8815    4.8757 C   0  0  0  0  0  0  0  0  0  0  0  0
    6.6257    0.1792    4.3139 Cl  0  0  0  0  0  0  0  0  0  0  0  0
    7.9948    2.7074    4.6120 Cl  0  0  0  0  0  0  0  0  0  0  0  0
    6.1792    1.7928    6.6688 Cl  0  0  0  0  0  0  0  0  0  0  0  0
    2.2315   -0.8088   -1.9149 H   0  0  0  0  0  0  0  0  0  0  0  0
    3.8827   -0.3593   -1.4707 H   0  0  0  0  0  0  0  0  0  0  0  0
    2.6141    0.9050   -1.7092 H   0  0  0  0  0  0  0  0  0  0  0  0
    4.3328    1.7586   -0.3934 H   0  0  0  0  0  0  0  0  0  0  0  0
    5.4690    2.9551    1.3746 H   0  0  0  0  0  0  0  0  0  0  0  0
    3.3132    0.6216    4.3170 H   0  0  0  0  0  0  0  0  0  0  0  0
    2.1335   -0.5163    2.5210 H   0  0  0  0  0  0  0  0  0  0  0  0
    5.8165    3.4146    3.4989 H   0  0  0  0  0  0  0  0  0  0  0  0
    3.1251    2.0263    5.8384 H   0  0  0  0  0  0  0  0  0  0  0  0
    1.7465    3.5180    7.1636 H   0  0  0  0  0  0  0  0  0  0  0  0
    1.7011    7.6335    8.5940 H   0  0  0  0  0  0  0  0  0  0  0  0
    2.7668    7.9442    7.2250 H   0  0  0  0  0  0  0  0  0  0  0  0
    3.3245    6.9299    8.6117 H   0  0  0  0  0  0  0  0  0  0  0  0
    4.0088    6.8949    5.7631 H   0  0  0  0  0  0  0  0  0  0  0  0
    5.3750    5.4297    4.3865 H   0  0  0  0  0  0  0  0  0  0  0  0
  1  2  1  0  0  0  0
  1 22  1  0  0  0  0
  1 23  1  0  0  0  0
  1 24  1  0  0  0  0
  2  3  1  0  0  0  0
  3  4  2  0  0  0  0
  3  8  1  0  0  0  0
  4  5  1  0  0  0  0
  4 25  1  0  0  0  0
  5  6  2  0  0  0  0
  5 26  1  0  0  0  0
  6  7  1  0  0  0  0
  6  9  1  0  0  0  0
  7  8  2  0  0  0  0
  7 27  1  0  0  0  0
  8 28  1  0  0  0  0
  9 10  1  0  0  0  0
  9 18  1  0  0  0  0
  9 29  1  0  0  0  0
 10 11  2  0  0  0  0
 10 17  1  0  0  0  0
 11 12  1  0  0  0  0
 11 30  1  0  0  0  0
 12 13  2  0  0  0  0
 12 31  1  0  0  0  0
 13 14  1  0  0  0  0
 13 16  1  0  0  0  0
 14 15  1  0  0  0  0
 15 32  1  0  0  0  0
 15 33  1  0  0  0  0
 15 34  1  0  0  0  0
 16 17  2  0  0  0  0
 16 35  1  0  0  0  0
 17 36  1  0  0  0  0
 18 19  1  0  0  0  0
 18 20  1  0  0  0  0
 18 21  1  0  0  0  0
M  END
$$$$

 OpenBabel12201709243D

 28 29  0  0  0  0  0  0  0  0999 V2000
    3.0262   -1.5592    0.8872 Cl  0  0  0  0  0  0  0  0  0  0  0  0
    2.7970   -0.0893   -0.1127 C   0  0  0  0  0  0  0  0  0  0  0  0
    1.0459    0.0800   -0.4710 Cl  0  0  0  0  0  0  0  0  0  0  0  0
    3.4152    1.2062    0.5013 C   0  0  0  0  0  0  0  0  0  0  0  0
    2.8073    1.5580    1.8718 C   0  0  0  0  0  0  0  0  0  0  0  0
    3.3603    1.0695    3.0696 C   0  0  0  0  0  0  0  0  0  0  0  0
    2.8020    1.4045    4.3055 C   0  0  0  0  0  0  0  0  0  0  0  0
    1.6730    2.2169    4.3571 C   0  0  0  0  0  0  0  0  0  0  0  0
    0.9805    2.6236    5.8784 Cl  0  0  0  0  0  0  0  0  0  0  0  0
    1.1052    2.7049    3.1837 C   0  0  0  0  0  0  0  0  0  0  0  0
    1.6722    2.3841    1.9484 C   0  0  0  0  0  0  0  0  0  0  0  0
    4.9592    1.2861    0.4970 C   0  0  0  0  0  0  0  0  0  0  0  0
    5.7875    0.2688   -0.0068 C   0  0  0  0  0  0  0  0  0  0  0  0
    7.1816    0.3662    0.0734 C   0  0  0  0  0  0  0  0  0  0  0  0
    7.7716    1.4874    0.6452 C   0  0  0  0  0  0  0  0  0  0  0  0
    9.4822    1.5809    0.7812 Cl  0  0  0  0  0  0  0  0  0  0  0  0
    6.9794    2.5296    1.1111 C   0  0  0  0  0  0  0  0  0  0  0  0
    5.5863    2.4362    1.0222 C   0  0  0  0  0  0  0  0  0  0  0  0
    3.2559   -0.2982   -1.0833 H   0  0  0  0  0  0  0  0  0  0  0  0
    3.1304    2.0213   -0.1837 H   0  0  0  0  0  0  0  0  0  0  0  0
    4.2418    0.4294    3.0563 H   0  0  0  0  0  0  0  0  0  0  0  0
    3.2532    1.0281    5.2196 H   0  0  0  0  0  0  0  0  0  0  0  0
    0.2180    3.3331    3.2230 H   0  0  0  0  0  0  0  0  0  0  0  0
    1.2097    2.7776    1.0453 H   0  0  0  0  0  0  0  0  0  0  0  0
    5.3889   -0.6346   -0.4592 H   0  0  0  0  0  0  0  0  0  0  0  0
    7.7991   -0.4454   -0.3034 H   0  0  0  0  0  0  0  0  0  0  0  0
    7.4321    3.4124    1.5529 H   0  0  0  0  0  0  0  0  0  0  0  0
    4.9888    3.2650    1.4020 H   0  0  0  0  0  0  0  0  0  0  0  0
  1  2  1  0  0  0  0
  2  3  1  0  0  0  0
  2  4  1  0  0  0  0
  2 19  1  0  0  0  0
  4  5  1  0  0  0  0
  4 12  1  0  0  0  0
  4 20  1  0  0  0  0
  5  6  2  0  0  0  0
  5 11  1  0  0  0  0
  6  7  1  0  0  0  0
  6 21  1  0  0  0  0
  7  8  2  0  0  0  0
  7 22  1  0  0  0  0
  8  9  1  0  0  0  0
  8 10  1  0  0  0  0
 10 11  2  0  0  0  0
 10 23  1  0  0  0  0
 11 24  1  0  0  0  0
 12 13  2  0  0  0  0
 12 18  1  0  0  0  0
 13 14  1  0  0  0  0
 13 25  1  0  0  0  0
 14 15  2  0  0  0  0
 14 26  1  0  0  0  0
 15 16  1  0  0  0  0
 15 17  1  0  0  0  0
 17 18  2  0  0  0  0
 17 27  1  0  0  0  0
 18 28  1  0  0  0  0
M  END
$$$$

 OpenBabel12201709243D

 28 29  0  0  0  0  0  0  0  0999 V2000
    0.9467   -0.1267    0.2184 Cl  0  0  0  0  0  0  0  0  0  0  0  0
    2.6572   -0.0509    0.0535 C   0  0  0  0  0  0  0  0  0  0  0  0
    3.2199    0.5033   -1.0900 C   0  0  0  0  0  0  0  0  0  0  0  0
    4.6116    0.5694   -1.2182 C   0  0  0  0  0  0  0  0  0  0  0  0
    5.4608    0.0703   -0.2077 C   0  0  0  0  0  0  0  0  0  0  0  0
    4.8634   -0.5091    0.9234 C   0  0  0  0  0  0  0  0  0  0  0  0
    3.4726   -0.5557    1.0607 C   0  0  0  0  0  0  0  0  0  0  0  0
    6.9883    0.1275   -0.4110 C   0  0  0  0  0  0  0  0  0  0  0  0
    7.7118    1.0298    0.6093 C   0  0  0  0  0  0  0  0  0  0  0  0
    7.7322    0.7499    1.9902 C   0  0  0  0  0  0  0  0  0  0  0  0
    8.4158    1.5719    2.8884 C   0  0  0  0  0  0  0  0  0  0  0  0
    9.0972    2.6889    2.4245 C   0  0  0  0  0  0  0  0  0  0  0  0
    9.9484    3.6909    3.5326 Cl  0  0  0  0  0  0  0  0  0  0  0  0
    9.1009    2.9900    1.0661 C   0  0  0  0  0  0  0  0  0  0  0  0
    8.4113    2.1684    0.1656 C   0  0  0  0  0  0  0  0  0  0  0  0
    7.7080   -1.2410   -0.7750 C   0  0  0  0  0  0  0  0  0  0  0  0
    6.5829   -2.6354   -1.0266 Cl  0  0  0  0  0  0  0  0  0  0  0  0
    8.6023   -1.0488   -2.3531 Cl  0  0  0  0  0  0  0  0  0  0  0  0
    8.9387   -1.8007    0.4208 Cl  0  0  0  0  0  0  0  0  0  0  0  0
    2.5851    0.8791   -1.8874 H   0  0  0  0  0  0  0  0  0  0  0  0
    5.0201    1.0020   -2.1306 H   0  0  0  0  0  0  0  0  0  0  0  0
    5.4567   -0.9565    1.7142 H   0  0  0  0  0  0  0  0  0  0  0  0
    3.0346   -0.9954    1.9532 H   0  0  0  0  0  0  0  0  0  0  0  0
    7.0615    0.7174   -1.3382 H   0  0  0  0  0  0  0  0  0  0  0  0
    7.2488   -0.1297    2.3980 H   0  0  0  0  0  0  0  0  0  0  0  0
    8.4142    1.3259    3.9469 H   0  0  0  0  0  0  0  0  0  0  0  0
    9.6418    3.8583    0.7004 H   0  0  0  0  0  0  0  0  0  0  0  0
    8.4400    2.4298   -0.8907 H   0  0  0  0  0  0  0  0  0  0  0  0
  1  2  1  0  0  0  0
  2  3  2  0  0  0  0
  2  7  1  0  0  0  0
  3  4  1  0  0  0  0
  3 20  1  0  0  0  0
  4  5  2  0  0  0  0
  4 21  1  0  0  0  0
  5  6  1  0  0  0  0
  5  8  1  0  0  0  0
  6  7  2  0  0  0  0
  6 22  1  0  0  0  0
  7 23  1  0  0  0  0
  8  9  1  0  0  0  0
  8 16  1  0  0  0  0
  8 24  1  0  0  0  0
  9 10  2  0  0  0  0
  9 15  1  0  0  0  0
 10 11  1  0  0  0  0
 10 25  1  0  0  0  0
 11 12  2  0  0  0  0
 11 26  1  0  0  0  0
 12 13  1  0  0  0  0
 12 14  1  0  0  0  0
 14 15  2  0  0  0  0
 14 27  1  0  0  0  0
 15 28  1  0  0  0  0
 16 17  1  0  0  0  0
 16 18  1  0  0  0  0
 16 19  1  0  0  0  0
M  END
$$$$

 OpenBabel12201709243D

 40 41  0  0  0  0  0  0  0  0999 V2000
    2.5135   -0.1078   -1.3500 C   0  0  0  0  0  0  0  0  0  0  0  0
    2.9754    0.3289    0.0313 C   0  0  0  0  0  0  0  0  0  0  0  0
    3.3211   -0.8334    0.9267 C   0  0  0  0  0  0  0  0  0  0  0  0
    4.6313   -1.3164    1.0141 C   0  0  0  0  0  0  0  0  0  0  0  0
    4.9509   -2.3672    1.8848 C   0  0  0  0  0  0  0  0  0  0  0  0
    3.9648   -2.9650    2.6899 C   0  0  0  0  0  0  0  0  0  0  0  0
    2.6470   -2.4956    2.5620 C   0  0  0  0  0  0  0  0  0  0  0  0
    2.3286   -1.4490    1.6926 C   0  0  0  0  0  0  0  0  0  0  0  0
    4.3467   -4.0774    3.6800 C   0  0  0  0  0  0  0  0  0  0  0  0
    4.1974   -3.6330    5.1767 C   0  0  0  0  0  0  0  0  0  0  0  0
    5.1296   -2.1498    5.5568 Cl  0  0  0  0  0  0  0  0  0  0  0  0
    2.5123   -3.4323    5.7490 Cl  0  0  0  0  0  0  0  0  0  0  0  0
    3.7180   -5.4595    3.4058 C   0  0  0  0  0  0  0  0  0  0  0  0
    2.9125   -5.7151    2.2858 C   0  0  0  0  0  0  0  0  0  0  0  0
    2.2242   -6.9251    2.1488 C   0  0  0  0  0  0  0  0  0  0  0  0
    2.3502   -7.9264    3.1137 C   0  0  0  0  0  0  0  0  0  0  0  0
    1.4909   -9.1635    3.0489 C   0  0  0  0  0  0  0  0  0  0  0  0
    2.1178  -10.2836    2.2391 C   0  0  0  0  0  0  0  0  0  0  0  0
    3.2580   -7.7426    4.1576 C   0  0  0  0  0  0  0  0  0  0  0  0
    3.9412   -6.5300    4.2941 C   0  0  0  0  0  0  0  0  0  0  0  0
    2.2594    0.7684   -1.9558 H   0  0  0  0  0  0  0  0  0  0  0  0
    1.6258   -0.7464   -1.2921 H   0  0  0  0  0  0  0  0  0  0  0  0
    3.2975   -0.6647   -1.8733 H   0  0  0  0  0  0  0  0  0  0  0  0
    2.1887    0.9289    0.5065 H   0  0  0  0  0  0  0  0  0  0  0  0
    3.8425    0.9931   -0.0622 H   0  0  0  0  0  0  0  0  0  0  0  0
    5.4197   -0.8666    0.4132 H   0  0  0  0  0  0  0  0  0  0  0  0
    5.9852   -2.7000    1.9369 H   0  0  0  0  0  0  0  0  0  0  0  0
    1.8355   -2.9491    3.1265 H   0  0  0  0  0  0  0  0  0  0  0  0
    1.2965   -1.1115    1.6290 H   0  0  0  0  0  0  0  0  0  0  0  0
    5.4242   -4.2529    3.5336 H   0  0  0  0  0  0  0  0  0  0  0  0
    4.6219   -4.3930    5.8359 H   0  0  0  0  0  0  0  0  0  0  0  0
    2.7697   -4.9702    1.5076 H   0  0  0  0  0  0  0  0  0  0  0  0
    1.5633   -7.0621    1.2955 H   0  0  0  0  0  0  0  0  0  0  0  0
    0.5147   -8.9009    2.6217 H   0  0  0  0  0  0  0  0  0  0  0  0
    1.2829   -9.5148    4.0674 H   0  0  0  0  0  0  0  0  0  0  0  0
    2.2913   -9.9763    1.2032 H   0  0  0  0  0  0  0  0  0  0  0  0
    1.4501  -11.1517    2.2282 H   0  0  0  0  0  0  0  0  0  0  0  0
    3.0762  -10.5948    2.6659 H   0  0  0  0  0  0  0  0  0  0  0  0
    3.4149   -8.5276    4.8943 H   0  0  0  0  0  0  0  0  0  0  0  0
    4.6299   -6.4381    5.1300 H   0  0  0  0  0  0  0  0  0  0  0  0
  1  2  1  0  0  0  0
  1 21  1  0  0  0  0
  1 22  1  0  0  0  0
  1 23  1  0  0  0  0
  2  3  1  0  0  0  0
  2 24  1  0  0  0  0
  2 25  1  0  0  0  0
  3  4  2  0  0  0  0
  3  8  1  0  0  0  0
  4  5  1  0  0  0  0
  4 26  1  0  0  0  0
  5  6  2  0  0  0  0
  5 27  1  0  0  0  0
  6  7  1  0  0  0  0
  6  9  1  0  0  0  0
  7  8  2  0  0  0  0
  7 28  1  0  0  0  0
  8 29  1  0  0  0  0
  9 10  1  0  0  0  0
  9 13  1  0  0  0  0
  9 30  1  0  0  0  0
 10 11  1  0  0  0  0
 10 12  1  0  0  0  0
 10 31  1  0  0  0  0
 13 14  2  0  0  0  0
 13 20  1  0  0  0  0
 14 15  1  0  0  0  0
 14 32  1  0  0  0  0
 15 16  2  0  0  0  0
 15 33  1  0  0  0  0
 16 17  1  0  0  0  0
 16 19  1  0  0  0  0
 17 18  1  0  0  0  0
 17 34  1  0  0  0  0
 17 35  1  0  0  0  0
 18 36  1  0  0  0  0
 18 37  1  0  0  0  0
 18 38  1  0  0  0  0
 19 20  2  0  0  0  0
 19 39  1  0  0  0  0
 20 40  1  0  0  0  0
M  END
$$$$

 OpenBabel12201709243D

 23 24  0  0  0  0  0  0  0  0999 V2000
    1.3109   -0.0934    0.0170 N   0  0  0  0  0  0  0  0  0  0  0  0
    2.6768   -0.0557   -0.0076 C   0  0  0  0  0  0  0  0  0  0  0  0
    3.2395    1.1466    0.0193 N   0  0  0  0  0  0  0  0  0  0  0  0
    4.5610    1.1599    0.0556 C   0  0  0  0  0  0  0  0  0  0  0  0
    5.1931    2.3793    0.1586 N   0  0  0  0  0  0  0  0  0  0  0  0
    5.3249    0.0865    0.0093 N   0  0  0  0  0  0  0  0  0  0  0  0
    4.6521   -1.0649   -0.0251 C   0  0  0  0  0  0  0  0  0  0  0  0
    3.3313   -1.2063   -0.0376 N   0  0  0  0  0  0  0  0  0  0  0  0
    5.4979   -2.2568   -0.0233 C   0  0  0  0  0  0  0  0  0  0  0  0
    6.8729   -2.4123   -0.0094 C   0  0  0  0  0  0  0  0  0  0  0  0
    7.1323   -3.7980   -0.0002 C   0  0  0  0  0  0  0  0  0  0  0  0
    5.9045   -4.4337   -0.0087 C   0  0  0  0  0  0  0  0  0  0  0  0
    4.9011   -3.4921   -0.0256 O   0  0  0  0  0  0  0  0  0  0  0  0
    5.6987   -5.8310   -0.0006 N   0  0  0  0  0  0  0  0  0  0  0  0
    6.6551   -6.5803    0.0123 O   0  0  0  0  0  0  0  0  0  0  0  0
    4.4132   -6.3393   -0.0079 O   0  0  0  0  0  0  0  0  0  0  0  0
    0.8220    0.7834   -0.0547 H   0  0  0  0  0  0  0  0  0  0  0  0
    0.8529   -0.9824   -0.0798 H   0  0  0  0  0  0  0  0  0  0  0  0
    4.6115    3.1427   -0.1529 H   0  0  0  0  0  0  0  0  0  0  0  0
    6.1519    2.3440   -0.1552 H   0  0  0  0  0  0  0  0  0  0  0  0
    7.5923   -1.6045    0.0002 H   0  0  0  0  0  0  0  0  0  0  0  0
    8.0958   -4.2898    0.0160 H   0  0  0  0  0  0  0  0  0  0  0  0
    3.8869   -5.5256   -0.0139 H   0  0  0  0  0  0  0  0  0  0  0  0
  1  2  1  0  0  0  0
  1 17  1  0  0  0  0
  1 18  1  0  0  0  0
  2  3  2  0  0  0  0
  2  8  1  0  0  0  0
  3  4  1  0  0  0  0
  4  5  1  0  0  0  0
  4  6  2  0  0  0  0
  5 19  1  0  0  0  0
  5 20  1  0  0  0  0
  6  7  1  0  0  0  0
  7  8  2  0  0  0  0
  7  9  1  0  0  0  0
  9 10  2  0  0  0  0
  9 13  1  0  0  0  0
 10 11  1  0  0  0  0
 10 21  1  0  0  0  0
 11 12  2  0  0  0  0
 11 22  1  0  0  0  0
 12 13  1  0  0  0  0
 12 14  1  0  0  0  0
 14 15  2  0  0  0  0
 14 16  1  0  0  0  0
 16 23  1  0  0  0  0
M  END
$$$$

 OpenBabel12201709243D

 26 28  0  0  0  0  0  0  0  0999 V2000
    0.9761    0.1273    0.0423 C   0  0  0  0  0  0  0  0  0  0  0  0
    2.4690    0.0108    0.0223 C   0  0  0  0  0  0  0  0  0  0  0  0
    3.1726    1.1835   -0.0240 N   0  0  0  0  0  0  0  0  0  0  0  0
    4.5143    1.1749   -0.0590 C   0  0  0  0  0  0  0  0  0  0  0  0
    5.1349    2.4197   -0.1576 N   0  0  0  0  0  0  0  0  0  0  0  0
    5.2784    0.0197   -0.0471 C   0  0  0  0  0  0  0  0  0  0  0  0
    4.5661   -1.1755    0.0022 C   0  0  0  0  0  0  0  0  0  0  0  0
    5.0172   -2.4729    0.0169 N   0  0  0  0  0  0  0  0  0  0  0  0
    5.9898   -2.7411   -0.0005 H   0  0  0  0  0  0  0  0  0  0  0  0
    3.9674   -3.3574    0.0352 C   0  0  0  0  0  0  0  0  0  0  0  0
    3.9751   -4.7576    0.0367 C   0  0  0  0  0  0  0  0  0  0  0  0
    2.7417   -5.4132    0.0409 C   0  0  0  0  0  0  0  0  0  0  0  0
    1.5503   -4.6936    0.0493 C   0  0  0  0  0  0  0  0  0  0  0  0
    1.5624   -3.2933    0.0550 C   0  0  0  0  0  0  0  0  0  0  0  0
    2.7941   -2.6025    0.0455 C   0  0  0  0  0  0  0  0  0  0  0  0
    3.1724   -1.2149    0.0306 C   0  0  0  0  0  0  0  0  0  0  0  0
    0.6650    1.1769    0.0518 H   0  0  0  0  0  0  0  0  0  0  0  0
    0.5701   -0.3547    0.9367 H   0  0  0  0  0  0  0  0  0  0  0  0
    0.5501   -0.3455   -0.8476 H   0  0  0  0  0  0  0  0  0  0  0  0
    4.3955    3.1152   -0.0986 H   0  0  0  0  0  0  0  0  0  0  0  0
    5.8332    2.5457    0.5647 H   0  0  0  0  0  0  0  0  0  0  0  0
    6.3585    0.0495   -0.0975 H   0  0  0  0  0  0  0  0  0  0  0  0
    4.9024   -5.3221    0.0272 H   0  0  0  0  0  0  0  0  0  0  0  0
    2.7130   -6.5004    0.0341 H   0  0  0  0  0  0  0  0  0  0  0  0
    0.6003   -5.2220    0.0479 H   0  0  0  0  0  0  0  0  0  0  0  0
    0.6213   -2.7522    0.0576 H   0  0  0  0  0  0  0  0  0  0  0  0
  1  2  1  0  0  0  0
  1 17  1  0  0  0  0
  1 18  1  0  0  0  0
  1 19  1  0  0  0  0
  2  3  2  0  0  0  0
  2 16  1  0  0  0  0
  3  4  1  0  0  0  0
  4  5  1  0  0  0  0
  4  6  2  0  0  0  0
  5 20  1  0  0  0  0
  5 21  1  0  0  0  0
  6  7  1  0  0  0  0
  6 22  1  0  0  0  0
  7  8  1  0  0  0  0
  7 16  2  0  0  0  0
  8  9  1  0  0  0  0
  8 10  1  0  0  0  0
 10 11  2  0  0  0  0
 10 15  1  0  0  0  0
 11 12  1  0  0  0  0
 11 23  1  0  0  0  0
 12 13  2  0  0  0  0
 12 24  1  0  0  0  0
 13 14  1  0  0  0  0
 13 25  1  0  0  0  0
 14 15  2  0  0  0  0
 14 26  1  0  0  0  0
 15 16  1  0  0  0  0
M  END
$$$$

 OpenBabel12201709243D

 22 22  0  0  0  0  0  0  0  0999 V2000
    1.1050   -0.0406   -0.1058 C   0  0  0  0  0  0  0  0  0  0  0  0
    2.5512   -0.0148   -0.0560 N   0  0  0  0  0  0  0  0  0  0  0  0
    3.2873   -0.9977    0.7126 C   0  0  0  0  0  0  0  0  0  0  0  0
    3.1566    0.8724   -0.8927 N   0  0  0  0  0  0  0  0  0  0  0  0
    4.4006    0.8862   -0.8205 N   0  0  0  0  0  0  0  0  0  0  0  0
    4.9509    1.8637   -1.6786 C   0  0  0  0  0  0  0  0  0  0  0  0
    4.3170    3.0868   -1.9522 C   0  0  0  0  0  0  0  0  0  0  0  0
    4.8990    4.0295   -2.8021 C   0  0  0  0  0  0  0  0  0  0  0  0
    6.1367    3.7662   -3.3816 C   0  0  0  0  0  0  0  0  0  0  0  0
    6.7932    2.5683   -3.1035 C   0  0  0  0  0  0  0  0  0  0  0  0
    6.2032    1.6251   -2.2556 C   0  0  0  0  0  0  0  0  0  0  0  0
    0.7021   -0.7919    0.5777 H   0  0  0  0  0  0  0  0  0  0  0  0
    0.7835   -0.2653   -1.1265 H   0  0  0  0  0  0  0  0  0  0  0  0
    0.7327    0.9450    0.1895 H   0  0  0  0  0  0  0  0  0  0  0  0
    2.5995   -1.6362    1.2778 H   0  0  0  0  0  0  0  0  0  0  0  0
    3.9394   -0.4815    1.4231 H   0  0  0  0  0  0  0  0  0  0  0  0
    3.8776   -1.6261    0.0405 H   0  0  0  0  0  0  0  0  0  0  0  0
    3.3549    3.3117   -1.4974 H   0  0  0  0  0  0  0  0  0  0  0  0
    4.3825    4.9628   -3.0098 H   0  0  0  0  0  0  0  0  0  0  0  0
    6.5907    4.4973   -4.0454 H   0  0  0  0  0  0  0  0  0  0  0  0
    7.7638    2.3655   -3.5498 H   0  0  0  0  0  0  0  0  0  0  0  0
    6.7216    0.6930   -2.0450 H   0  0  0  0  0  0  0  0  0  0  0  0
  1  2  1  0  0  0  0
  1 12  1  0  0  0  0
  1 13  1  0  0  0  0
  1 14  1  0  0  0  0
  2  3  1  0  0  0  0
  2  4  1  0  0  0  0
  3 15  1  0  0  0  0
  3 16  1  0  0  0  0
  3 17  1  0  0  0  0
  4  5  2  3  0  0  0
  5  6  1  0  0  0  0
  6  7  2  0  0  0  0
  6 11  1  0  0  0  0
  7  8  1  0  0  0  0
  7 18  1  0  0  0  0
  8  9  2  0  0  0  0
  8 19  1  0  0  0  0
  9 10  1  0  0  0  0
  9 20  1  0  0  0  0
 10 11  2  0  0  0  0
 10 21  1  0  0  0  0
 11 22  1  0  0  0  0
M  END
$$$$

 OpenBabel12201709243D

 27 28  0  0  1  0  0  0  0  0999 V2000
    5.5136    0.0831   -1.7051 N   0  0  0  0  0  0  0  0  0  0  0  0
    4.3212    0.9862   -1.8399 C   0  0  3  0  0  0  0  0  0  0  0  0
    2.9877    0.3122   -1.4923 C   0  0  0  0  0  0  0  0  0  0  0  0
    2.6288   -0.8111   -2.4200 C   0  0  0  0  0  0  0  0  0  0  0  0
    2.9151   -2.1513   -2.2338 C   0  0  0  0  0  0  0  0  0  0  0  0
    2.4129   -2.8520   -3.2975 N   0  0  0  0  0  0  0  0  0  0  0  0
    2.4711   -3.8537   -3.4178 H   0  0  0  0  0  0  0  0  0  0  0  0
    1.7930   -1.9993   -4.1797 C   0  0  0  0  0  0  0  0  0  0  0  0
    1.1391   -2.2749   -5.3883 C   0  0  0  0  0  0  0  0  0  0  0  0
    0.5768   -1.1978   -6.0813 C   0  0  0  0  0  0  0  0  0  0  0  0
    0.6674    0.0969   -5.5807 C   0  0  0  0  0  0  0  0  0  0  0  0
    1.3297    0.3566   -4.3751 C   0  0  0  0  0  0  0  0  0  0  0  0
    1.9061   -0.7117   -3.6555 C   0  0  0  0  0  0  0  0  0  0  0  0
    4.5615    2.2042   -0.9308 C   0  0  0  0  0  0  0  0  0  0  0  0
    3.7009    2.9277   -0.4607 O   0  0  0  0  0  0  0  0  0  0  0  0
    5.8935    2.3972   -0.7260 O   0  0  0  0  0  0  0  0  0  0  0  0
    5.3641   -0.6933   -2.3614 H   0  0  0  0  0  0  0  0  0  0  0  0
    5.4559   -0.3695   -0.7857 H   0  0  0  0  0  0  0  0  0  0  0  0
    4.3076    1.3625   -2.8703 H   0  0  0  0  0  0  0  0  0  0  0  0
    2.1801    1.0571   -1.5162 H   0  0  0  0  0  0  0  0  0  0  0  0
    3.0108   -0.0606   -0.4579 H   0  0  0  0  0  0  0  0  0  0  0  0
    3.4241   -2.6667   -1.4312 H   0  0  0  0  0  0  0  0  0  0  0  0
    1.0632   -3.2848   -5.7756 H   0  0  0  0  0  0  0  0  0  0  0  0
    0.0579   -1.3785   -7.0183 H   0  0  0  0  0  0  0  0  0  0  0  0
    0.2164    0.9196   -6.1331 H   0  0  0  0  0  0  0  0  0  0  0  0
    1.3844    1.3727   -3.9975 H   0  0  0  0  0  0  0  0  0  0  0  0
    6.3514    1.6492   -1.1868 H   0  0  0  0  0  0  0  0  0  0  0  0
  1  2  1  0  0  0  0
  1 17  1  0  0  0  0
  1 18  1  0  0  0  0
  2  3  1  0  0  0  0
  2 14  1  0  0  0  0
  2 19  1  0  0  0  0
  3  4  1  0  0  0  0
  3 20  1  0  0  0  0
  3 21  1  0  0  0  0
  4  5  2  0  0  0  0
  4 13  1  0  0  0  0
  5  6  1  0  0  0  0
  5 22  1  0  0  0  0
  6  7  1  0  0  0  0
  6  8  1  0  0  0  0
  8  9  2  0  0  0  0
  8 13  1  0  0  0  0
  9 10  1  0  0  0  0
  9 23  1  0  0  0  0
 10 11  2  0  0  0  0
 10 24  1  0  0  0  0
 11 12  1  0  0  0  0
 11 25  1  0  0  0  0
 12 13  2  0  0  0  0
 12 26  1  0  0  0  0
 14 15  2  0  0  0  0
 14 16  1  0  0  0  0
 16 27  1  0  0  0  0
M  END
$$$$

 OpenBabel12201709243D

 38 39  0  0  0  0  0  0  0  0999 V2000
    0.7575    0.3692    0.2883 N   0  0  0  0  0  0  0  0  0  0  0  0
    2.1634    0.2857    0.1210 C   0  0  0  0  0  0  0  0  0  0  0  0
    2.9503    1.4393    0.0905 C   0  0  0  0  0  0  0  0  0  0  0  0
    4.3352    1.3488   -0.1029 C   0  0  0  0  0  0  0  0  0  0  0  0
    4.9717    0.0926   -0.2676 C   0  0  0  0  0  0  0  0  0  0  0  0
    6.4474   -0.0259   -0.5419 C   0  0  0  0  0  0  0  0  0  0  0  0
    7.3251    0.9914   -0.6684 C   0  0  0  0  0  0  0  0  0  0  0  0
    8.7903    0.9139   -1.0440 C   0  0  0  0  0  0  0  0  0  0  0  0
    9.4442    2.1725   -1.0697 C   0  0  0  0  0  0  0  0  0  0  0  0
   10.7858    2.3048   -1.4336 C   0  0  0  0  0  0  0  0  0  0  0  0
   11.5277    1.1838   -1.7903 C   0  0  0  0  0  0  0  0  0  0  0  0
   12.8875    1.3085   -2.1773 N   0  0  0  0  0  0  0  0  0  0  0  0
   10.9248   -0.0684   -1.7678 C   0  0  0  0  0  0  0  0  0  0  0  0
    9.5754   -0.2408   -1.4019 C   0  0  0  0  0  0  0  0  0  0  0  0
    9.0303   -1.9686   -1.4372 S   0  0  0  0  0  0  0  0  0  0  0  0
   10.1324   -2.9000   -1.9670 O   0  0  0  0  0  0  0  0  0  0  0  0
    8.9157   -2.5135   -0.0066 O   0  0  0  0  0  0  0  0  0  0  0  0
    7.6167   -2.5044   -2.2573 O   0  0  0  0  0  0  0  0  0  0  0  0
    8.0086   -2.4710   -4.2480 Na  0  0  0  0  0  0  0  0  0  0  0  0
    4.1545   -1.0753   -0.2094 C   0  0  0  0  0  0  0  0  0  0  0  0
    2.7708   -0.9583   -0.0231 C   0  0  0  0  0  0  0  0  0  0  0  0
    4.7806   -2.7616   -0.3839 S   0  0  0  0  0  0  0  0  0  0  0  0
    3.8171   -3.7801    0.2438 O   0  0  0  0  0  0  0  0  0  0  0  0
    4.7684   -3.2231   -1.8485 O   0  0  0  0  0  0  0  0  0  0  0  0
    6.3123   -3.2164    0.2338 O   0  0  0  0  0  0  0  0  0  0  0  0
    6.2550   -2.7055    2.1975 Na  0  0  0  0  0  0  0  0  0  0  0  0
    0.2890    1.2813    0.3866 H   0  0  0  0  0  0  0  0  0  0  0  0
    0.1788   -0.4840    0.2931 H   0  0  0  0  0  0  0  0  0  0  0  0
    2.4885    2.4125    0.2047 H   0  0  0  0  0  0  0  0  0  0  0  0
    4.8805    2.2784   -0.1322 H   0  0  0  0  0  0  0  0  0  0  0  0
    6.8041   -1.0052   -0.6777 H   0  0  0  0  0  0  0  0  0  0  0  0
    6.9469    1.9932   -0.5157 H   0  0  0  0  0  0  0  0  0  0  0  0
    8.9127    3.0800   -0.8086 H   0  0  0  0  0  0  0  0  0  0  0  0
   11.2451    3.2855   -1.4411 H   0  0  0  0  0  0  0  0  0  0  0  0
   13.3483    2.2288   -2.2039 H   0  0  0  0  0  0  0  0  0  0  0  0
   13.4328    0.4777   -2.4516 H   0  0  0  0  0  0  0  0  0  0  0  0
   11.5286   -0.9222   -2.0419 H   0  0  0  0  0  0  0  0  0  0  0  0
    2.1534   -1.8466    0.0022 H   0  0  0  0  0  0  0  0  0  0  0  0
  1  2  1  0  0  0  0
  1 27  1  0  0  0  0
  1 28  1  0  0  0  0
  2  3  2  0  0  0  0
  2 21  1  0  0  0  0
  3  4  1  0  0  0  0
  3 29  1  0  0  0  0
  4  5  2  0  0  0  0
  4 30  1  0  0  0  0
  5  6  1  0  0  0  0
  5 20  1  0  0  0  0
  6  7  2  3  0  0  0
  6 31  1  0  0  0  0
  7  8  1  0  0  0  0
  7 32  1  0  0  0  0
  8  9  2  0  0  0  0
  8 14  1  0  0  0  0
  9 10  1  0  0  0  0
  9 33  1  0  0  0  0
 10 11  2  0  0  0  0
 10 34  1  0  0  0  0
 11 12  1  0  0  0  0
 11 13  1  0  0  0  0
 12 35  1  0  0  0  0
 12 36  1  0  0  0  0
 13 14  2  0  0  0  0
 13 37  1  0  0  0  0
 14 15  1  0  0  0  0
 15 16  2  0  0  0  0
 15 17  2  0  0  0  0
 15 18  1  0  0  0  0
 18 19  1  0  0  0  0
 20 21  2  0  0  0  0
 20 22  1  0  0  0  0
 21 38  1  0  0  0  0
 22 23  2  0  0  0  0
 22 24  2  0  0  0  0
 22 25  1  0  0  0  0
 25 26  1  0  0  0  0
M  END
$$$$

 OpenBabel12201709243D

 36 38  0  0  0  0  0  0  0  0999 V2000
    1.1010    0.3985    0.3826 N   0  0  0  0  0  0  0  0  0  0  0  0
    0.2577    1.3856   -0.1784 C   0  0  0  0  0  0  0  0  0  0  0  0
    0.6399    2.2174   -1.2379 C   0  0  0  0  0  0  0  0  0  0  0  0
   -0.2365    3.1777   -1.7542 C   0  0  0  0  0  0  0  0  0  0  0  0
   -1.5111    3.3226   -1.2136 C   0  0  0  0  0  0  0  0  0  0  0  0
   -1.9072    2.5100   -0.1544 C   0  0  0  0  0  0  0  0  0  0  0  0
   -1.0279    1.5510    0.3588 C   0  0  0  0  0  0  0  0  0  0  0  0
    2.4990    0.2402    0.2942 C   0  0  0  0  0  0  0  0  0  0  0  0
    3.3670    1.3313    0.2161 C   0  0  0  0  0  0  0  0  0  0  0  0
    4.7389    1.1441    0.0352 C   0  0  0  0  0  0  0  0  0  0  0  0
    5.2924   -0.1403   -0.0385 C   0  0  0  0  0  0  0  0  0  0  0  0
    6.6639   -0.2591   -0.3140 N   0  0  0  0  0  0  0  0  0  0  0  0
    7.6206   -1.2286    0.0246 C   0  0  0  0  0  0  0  0  0  0  0  0
    8.6802   -1.4803   -0.8607 C   0  0  0  0  0  0  0  0  0  0  0  0
    9.6870   -2.3948   -0.5401 C   0  0  0  0  0  0  0  0  0  0  0  0
    9.6481   -3.0704    0.6747 C   0  0  0  0  0  0  0  0  0  0  0  0
    8.5908   -2.8499    1.5544 C   0  0  0  0  0  0  0  0  0  0  0  0
    7.5754   -1.9455    1.2241 C   0  0  0  0  0  0  0  0  0  0  0  0
    4.4458   -1.2318    0.1668 C   0  0  0  0  0  0  0  0  0  0  0  0
    3.0627   -1.0429    0.3166 C   0  0  0  0  0  0  0  0  0  0  0  0
    0.6051   -0.4830    0.4736 H   0  0  0  0  0  0  0  0  0  0  0  0
    1.6153    2.1088   -1.7027 H   0  0  0  0  0  0  0  0  0  0  0  0
    0.0772    3.8042   -2.5851 H   0  0  0  0  0  0  0  0  0  0  0  0
   -2.1932    4.0660   -1.6168 H   0  0  0  0  0  0  0  0  0  0  0  0
   -2.8994    2.6226    0.2755 H   0  0  0  0  0  0  0  0  0  0  0  0
   -1.3508    0.9365    1.1954 H   0  0  0  0  0  0  0  0  0  0  0  0
    2.9842    2.3442    0.2954 H   0  0  0  0  0  0  0  0  0  0  0  0
    5.3830    2.0155   -0.0435 H   0  0  0  0  0  0  0  0  0  0  0  0
    6.9580    0.3617   -1.0601 H   0  0  0  0  0  0  0  0  0  0  0  0
    8.7314   -0.9605   -1.8143 H   0  0  0  0  0  0  0  0  0  0  0  0
   10.5063   -2.5687   -1.2338 H   0  0  0  0  0  0  0  0  0  0  0  0
   10.4431   -3.7635    0.9374 H   0  0  0  0  0  0  0  0  0  0  0  0
    8.5626   -3.3689    2.5086 H   0  0  0  0  0  0  0  0  0  0  0  0
    6.7764   -1.7651    1.9378 H   0  0  0  0  0  0  0  0  0  0  0  0
    4.8402   -2.2446    0.1430 H   0  0  0  0  0  0  0  0  0  0  0  0
    2.4293   -1.9193    0.4242 H   0  0  0  0  0  0  0  0  0  0  0  0
  1  2  1  0  0  0  0
  1  8  1  0  0  0  0
  1 21  1  0  0  0  0
  2  3  2  0  0  0  0
  2  7  1  0  0  0  0
  3  4  1  0  0  0  0
  3 22  1  0  0  0  0
  4  5  2  0  0  0  0
  4 23  1  0  0  0  0
  5  6  1  0  0  0  0
  5 24  1  0  0  0  0
  6  7  2  0  0  0  0
  6 25  1  0  0  0  0
  7 26  1  0  0  0  0
  8  9  2  0  0  0  0
  8 20  1  0  0  0  0
  9 10  1  0  0  0  0
  9 27  1  0  0  0  0
 10 11  2  0  0  0  0
 10 28  1  0  0  0  0
 11 12  1  0  0  0  0
 11 19  1  0  0  0  0
 12 13  1  0  0  0  0
 12 29  1  0  0  0  0
 13 14  2  0  0  0  0
 13 18  1  0  0  0  0
 14 15  1  0  0  0  0
 14 30  1  0  0  0  0
 15 16  2  0  0  0  0
 15 31  1  0  0  0  0
 16 17  1  0  0  0  0
 16 32  1  0  0  0  0
 17 18  2  0  0  0  0
 17 33  1  0  0  0  0
 18 34  1  0  0  0  0
 19 20  2  0  0  0  0
 19 35  1  0  0  0  0
 20 36  1  0  0  0  0
M  END
$$$$

 OpenBabel12201709243D

  5  4  0  0  0  0  0  0  0  0999 V2000
    0.9107   -0.0321   -0.0424 C   0  0  0  0  0  0  0  0  0  0  0  0
    2.8456   -0.0321   -0.0424 Br  0  0  0  0  0  0  0  0  0  0  0  0
    0.5722   -0.1782    0.9844 H   0  0  0  0  0  0  0  0  0  0  0  0
    0.5722   -0.8482   -0.6823 H   0  0  0  0  0  0  0  0  0  0  0  0
    0.5722    0.9302   -0.4292 H   0  0  0  0  0  0  0  0  0  0  0  0
  1  2  1  0  0  0  0
  1  3  1  0  0  0  0
  1  4  1  0  0  0  0
  1  5  1  0  0  0  0
M  END
$$$$

 OpenBabel12201709243D

  8  7  0  0  0  0  0  0  0  0999 V2000
    0.9574   -0.0476    0.0696 C   0  0  0  0  0  0  0  0  0  0  0  0
    2.4682   -0.0543    0.0745 C   0  0  0  0  0  0  0  0  0  0  0  0
    3.1399    1.4219   -0.9982 Br  0  0  0  0  0  0  0  0  0  0  0  0
    0.5732   -0.8767    0.6720 H   0  0  0  0  0  0  0  0  0  0  0  0
    0.5615   -0.1555   -0.9458 H   0  0  0  0  0  0  0  0  0  0  0  0
    0.5615    0.8848    0.4860 H   0  0  0  0  0  0  0  0  0  0  0  0
    2.8686   -0.9727   -0.3622 H   0  0  0  0  0  0  0  0  0  0  0  0
    2.8686    0.0773    1.0828 H   0  0  0  0  0  0  0  0  0  0  0  0
  1  2  1  0  0  0  0
  1  4  1  0  0  0  0
  1  5  1  0  0  0  0
  1  6  1  0  0  0  0
  2  3  1  0  0  0  0
  2  7  1  0  0  0  0
  2  8  1  0  0  0  0
M  END
$$$$

 OpenBabel12201709243D

  2  1  0  0  0  0  0  0  0  0999 V2000
    1.0215   -0.0501    0.0642 S   0  0  0  0  0  0  0  0  0  0  0  0
    2.8761   -0.0501    0.0642 Se  0  0  0  0  0  0  0  0  0  0  0  0
  1  2  2  0  0  0  0
M  END
$$$$

 OpenBabel12201709243D

  2  1  0  0  0  0  0  0  0  0999 V2000
    1.2376   -0.0185   -0.0680 Cl  0  0  0  0  0  0  0  0  0  0  0  0
    3.9544   -0.0185   -0.0680 K   0  0  0  0  0  0  0  0  0  0  0  0
  1  2  1  0  0  0  0
M  END
$$$$

 OpenBabel12201709243D

  3  2  0  0  0  0  0  0  0  0999 V2000
    0.9335   -0.0125    0.0736 Cl  0  0  0  0  0  0  0  0  0  0  0  0
    3.2735   -0.0125    0.0736 Hg  0  0  0  0  0  0  0  0  0  0  0  0
       nan       nan       nan Cl  0  0  0  0  0  0  0  0  0  0  0  0
  1  2  1  0  0  0  0
  2  3  1  0  0  0  0
M  END
$$$$

 OpenBabel12201709243D

  8  7  0  0  0  0  0  0  0  0999 V2000
    0.9801    0.0962    0.0239 C   0  0  0  0  0  0  0  0  0  0  0  0
    2.4944    0.0958    0.0241 C   0  0  0  0  0  0  0  0  0  0  0  0
    3.1175    1.4882   -0.8867 Cl  0  0  0  0  0  0  0  0  0  0  0  0
    0.6026   -0.7637    0.5863 H   0  0  0  0  0  0  0  0  0  0  0  0
    0.5837    0.0324   -0.9948 H   0  0  0  0  0  0  0  0  0  0  0  0
    0.5837    1.0040    0.4904 H   0  0  0  0  0  0  0  0  0  0  0  0
    2.8825   -0.8139   -0.4426 H   0  0  0  0  0  0  0  0  0  0  0  0
    2.8825    0.1590    1.0446 H   0  0  0  0  0  0  0  0  0  0  0  0
  1  2  1  0  0  0  0
  1  4  1  0  0  0  0
  1  5  1  0  0  0  0
  1  6  1  0  0  0  0
  2  3  1  0  0  0  0
  2  7  1  0  0  0  0
  2  8  1  0  0  0  0
M  END
$$$$

 OpenBabel12201709243D

  6  5  0  0  0  0  0  0  0  0999 V2000
    1.0789   -0.1164   -0.0588 Cl  0  0  0  0  0  0  0  0  0  0  0  0
    2.7890   -0.0452   -0.0686 C   0  0  0  0  0  0  0  0  0  0  0  0
    3.4627    1.0942   -0.2244 C   0  0  0  0  0  0  0  0  0  0  0  0
    3.2510   -1.0152    0.0641 H   0  0  0  0  0  0  0  0  0  0  0  0
    2.9520    2.0429   -0.3541 H   0  0  0  0  0  0  0  0  0  0  0  0
    4.5472    1.0996   -0.2251 H   0  0  0  0  0  0  0  0  0  0  0  0
  1  2  1  0  0  0  0
  2  3  2  0  0  0  0
  2  4  1  0  0  0  0
  3  5  1  0  0  0  0
  3  6  1  0  0  0  0
M  END
$$$$

 OpenBabel12201709243D

  7  6  0  0  0  0  0  0  0  0999 V2000
    0.9487    0.0251   -0.0881 C   0  0  0  0  0  0  0  0  0  0  0  0
    2.4454    0.0393   -0.1185 C   0  0  0  0  0  0  0  0  0  0  0  0
    3.0925    0.4790   -1.0634 O   0  0  0  0  0  0  0  0  0  0  0  0
    0.6137   -0.4139    0.8553 H   0  0  0  0  0  0  0  0  0  0  0  0
    0.5722   -0.5808   -0.9152 H   0  0  0  0  0  0  0  0  0  0  0  0
    0.5722    1.0481   -0.1571 H   0  0  0  0  0  0  0  0  0  0  0  0
    2.9495   -0.3747    0.7710 H   0  0  0  0  0  0  0  0  0  0  0  0
  1  2  1  0  0  0  0
  1  4  1  0  0  0  0
  1  5  1  0  0  0  0
  1  6  1  0  0  0  0
  2  3  2  0  0  0  0
  2  7  1  0  0  0  0
M  END
$$$$

 OpenBabel12201709243D

  5  4  0  0  0  0  0  0  0  0999 V2000
    0.9940    0.0819   -0.0217 Cl  0  0  0  0  0  0  0  0  0  0  0  0
    2.7611    0.1072   -0.0270 C   0  0  0  0  0  0  0  0  0  0  0  0
    3.3744    1.7288   -0.3694 Cl  0  0  0  0  0  0  0  0  0  0  0  0
    3.1243   -0.5800   -0.7951 H   0  0  0  0  0  0  0  0  0  0  0  0
    3.1243   -0.2108    0.9533 H   0  0  0  0  0  0  0  0  0  0  0  0
  1  2  1  0  0  0  0
  2  3  1  0  0  0  0
  2  4  1  0  0  0  0
  2  5  1  0  0  0  0
M  END
$$$$

 OpenBabel12201709243D

  7  7  0  0  0  0  0  0  0  0999 V2000
   -0.0777    0.8894    0.0759 C   0  0  0  0  0  0  0  0  0  0  0  0
   -0.7832   -0.4289   -0.0761 C   0  0  0  0  0  0  0  0  0  0  0  0
    0.6457   -0.3457   -0.0000 O   0  0  0  0  0  0  0  0  0  0  0  0
   -0.1158    1.3873    1.0363 H   0  0  0  0  0  0  0  0  0  0  0  0
   -0.0285    1.5500   -0.7802 H   0  0  0  0  0  0  0  0  0  0  0  0
   -1.2185   -0.6734   -1.0365 H   0  0  0  0  0  0  0  0  0  0  0  0
   -1.3057   -0.8362    0.7799 H   0  0  0  0  0  0  0  0  0  0  0  0
  1  2  1  0  0  0  0
  1  3  1  0  0  0  0
  1  4  1  0  0  0  0
  1  5  1  0  0  0  0
  2  3  1  0  0  0  0
  2  6  1  0  0  0  0
  2  7  1  0  0  0  0
M  END
$$$$

 OpenBabel12201709243D

  5  4  0  0  0  0  0  0  0  0999 V2000
    1.0577   -0.0421    0.0085 Br  0  0  0  0  0  0  0  0  0  0  0  0
    2.9994   -0.1121   -0.0581 C   0  0  0  0  0  0  0  0  0  0  0  0
    3.6922   -1.8290    0.5352 Br  0  0  0  0  0  0  0  0  0  0  0  0
    3.6922    0.3952   -1.8023 Br  0  0  0  0  0  0  0  0  0  0  0  0
    3.3636    0.6342    0.6520 H   0  0  0  0  0  0  0  0  0  0  0  0
  1  2  1  0  0  0  0
  2  3  1  0  0  0  0
  2  4  1  0  0  0  0
  2  5  1  0  0  0  0
M  END
$$$$

 OpenBabel12201709243D

  5  4  0  0  0  0  0  0  0  0999 V2000
    1.0559   -0.0818    0.0470 Cl  0  0  0  0  0  0  0  0  0  0  0  0
    2.8209   -0.0602    0.0231 C   0  0  0  0  0  0  0  0  0  0  0  0
    3.4372    0.4766   -1.5415 Cl  0  0  0  0  0  0  0  0  0  0  0  0
    3.4829    1.1058    1.4253 Br  0  0  0  0  0  0  0  0  0  0  0  0
    3.1962   -1.0651    0.2326 H   0  0  0  0  0  0  0  0  0  0  0  0
  1  2  1  0  0  0  0
  2  3  1  0  0  0  0
  2  4  1  0  0  0  0
  2  5  1  0  0  0  0
M  END
$$$$

 OpenBabel12201709243D

  8  7  0  0  0  0  0  0  0  0999 V2000
    0.9641   -0.0568    0.0691 C   0  0  0  0  0  0  0  0  0  0  0  0
    2.4820   -0.0503    0.0744 C   0  0  0  0  0  0  0  0  0  0  0  0
    3.0950    1.5025   -0.5392 Cl  0  0  0  0  0  0  0  0  0  0  0  0
    3.0950   -0.3365    1.7193 Cl  0  0  0  0  0  0  0  0  0  0  0  0
    0.5770    0.0975   -0.9441 H   0  0  0  0  0  0  0  0  0  0  0  0
    0.5517    0.7306    0.7102 H   0  0  0  0  0  0  0  0  0  0  0  0
    0.5770   -1.0176    0.4255 H   0  0  0  0  0  0  0  0  0  0  0  0
    2.8726   -0.8424   -0.5706 H   0  0  0  0  0  0  0  0  0  0  0  0
  1  2  1  0  0  0  0
  1  5  1  0  0  0  0
  1  6  1  0  0  0  0
  1  7  1  0  0  0  0
  2  3  1  0  0  0  0
  2  4  1  0  0  0  0
  2  8  1  0  0  0  0
M  END
$$$$

 OpenBabel12201709243D

  6  5  0  0  0  0  0  0  0  0999 V2000
    1.0886   -0.0560   -0.0450 Cl  0  0  0  0  0  0  0  0  0  0  0  0
    2.8112   -0.0790   -0.0420 C   0  0  0  0  0  0  0  0  0  0  0  0
    3.4789   -1.2259    0.1063 C   0  0  0  0  0  0  0  0  0  0  0  0
    3.6524    1.4120   -0.2349 Cl  0  0  0  0  0  0  0  0  0  0  0  0
    2.9582   -2.1695    0.2284 H   0  0  0  0  0  0  0  0  0  0  0  0
    4.5632   -1.2505    0.1095 H   0  0  0  0  0  0  0  0  0  0  0  0
  1  2  1  0  0  0  0
  2  3  2  0  0  0  0
  2  4  1  0  0  0  0
  3  5  1  0  0  0  0
  3  6  1  0  0  0  0
M  END
$$$$

 OpenBabel12201709243D

  5  4  0  0  0  0  0  0  0  0999 V2000
    1.0000   -0.1037   -0.0119 I   0  0  0  0  0  0  0  0  0  0  0  0
    3.1105   -0.0608   -0.0684 C   0  0  0  0  0  0  0  0  0  0  0  0
    3.7806    0.6577    1.8009 I   0  0  0  0  0  0  0  0  0  0  0  0
    3.7805   -2.0543   -0.2588 I   0  0  0  0  0  0  0  0  0  0  0  0
    3.4751    0.5629   -0.8897 H   0  0  0  0  0  0  0  0  0  0  0  0
  1  2  1  0  0  0  0
  2  3  1  0  0  0  0
  2  4  1  0  0  0  0
  2  5  1  0  0  0  0
M  END
$$$$

 OpenBabel12201709243D

 10 10  0  0  1  0  0  0  0  0999 V2000
    0.9534    0.0946    0.0157 C   0  0  0  0  0  0  0  0  0  0  0  0
    2.4367   -0.0047    0.0351 C   0  0  3  0  0  0  0  0  0  0  0  0
    3.1895   -0.7524   -1.0328 C   0  0  0  0  0  0  0  0  0  0  0  0
    3.0867    0.6795   -1.0425 O   0  0  0  0  0  0  0  0  0  0  0  0
    0.5208   -0.5986    0.7433 H   0  0  0  0  0  0  0  0  0  0  0  0
    0.5378   -0.1435   -0.9689 H   0  0  0  0  0  0  0  0  0  0  0  0
    0.6396    1.1088    0.2830 H   0  0  0  0  0  0  0  0  0  0  0  0
    2.8647    0.0894    1.0235 H   0  0  0  0  0  0  0  0  0  0  0  0
    2.6363   -1.2960   -1.7881 H   0  0  0  0  0  0  0  0  0  0  0  0
    4.1520   -1.1798   -0.7813 H   0  0  0  0  0  0  0  0  0  0  0  0
  1  2  1  0  0  0  0
  1  5  1  0  0  0  0
  1  6  1  0  0  0  0
  1  7  1  0  0  0  0
  2  3  1  0  0  0  0
  2  4  1  0  0  0  0
  2  8  1  0  0  0  0
  3  4  1  0  0  0  0
  3  9  1  0  0  0  0
  3 10  1  0  0  0  0
M  END
$$$$

 OpenBabel12201709243D

  5  4  0  0  0  0  0  0  0  0999 V2000
    1.0180   -0.0591   -0.0754 F   0  0  0  0  0  0  0  0  0  0  0  0
    2.3784   -0.0591   -0.0754 C   0  0  0  0  0  0  0  0  0  0  0  0
    2.9489    1.6170    0.0484 Cl  0  0  0  0  0  0  0  0  0  0  0  0
    2.9489   -1.0043    1.3143 Cl  0  0  0  0  0  0  0  0  0  0  0  0
    2.9489   -0.7899   -1.5888 Cl  0  0  0  0  0  0  0  0  0  0  0  0
  1  2  1  0  0  0  0
  2  3  1  0  0  0  0
  2  4  1  0  0  0  0
  2  5  1  0  0  0  0
M  END
$$$$

 OpenBabel12201709243D

  8  7  0  0  0  0  0  0  0  0999 V2000
    3.3611    0.8774    0.4157 F   0  0  0  0  0  0  0  0  0  0  0  0
    2.3729    0.0901   -0.0565 C   0  0  0  0  0  0  0  0  0  0  0  0
    1.6083   -0.2749    1.0005 F   0  0  0  0  0  0  0  0  0  0  0  0
    1.5970    0.8568   -0.8603 F   0  0  0  0  0  0  0  0  0  0  0  0
    2.8676   -1.1366   -0.8060 C   0  0  0  0  0  0  0  0  0  0  0  0
    4.6448   -1.2779   -0.8842 Cl  0  0  0  0  0  0  0  0  0  0  0  0
    2.5025   -1.1261   -1.8373 H   0  0  0  0  0  0  0  0  0  0  0  0
    2.4953   -2.0491   -0.3311 H   0  0  0  0  0  0  0  0  0  0  0  0
  1  2  1  0  0  0  0
  2  3  1  0  0  0  0
  2  4  1  0  0  0  0
  2  5  1  0  0  0  0
  5  6  1  0  0  0  0
  5  7  1  0  0  0  0
  5  8  1  0  0  0  0
M  END
$$$$

 OpenBabel12201709243D

 29 31  0  0  0  0  0  0  0  0999 V2000
    1.0130    0.1968   -0.0381 C   0  0  0  0  0  0  0  0  0  0  0  0
    2.5061    0.0830   -0.0509 C   0  0  0  0  0  0  0  0  0  0  0  0
    3.2066    1.2538   -0.1037 N   0  0  0  0  0  0  0  0  0  0  0  0
    4.5514    1.2541   -0.1188 C   0  0  0  0  0  0  0  0  0  0  0  0
    5.1204    2.5238   -0.2253 N   0  0  0  0  0  0  0  0  0  0  0  0
    5.3394    0.1028   -0.0740 C   0  0  0  0  0  0  0  0  0  0  0  0
    6.8364    0.1212   -0.0957 C   0  0  0  0  0  0  0  0  0  0  0  0
    4.6060   -1.0941   -0.0378 C   0  0  0  0  0  0  0  0  0  0  0  0
    5.0500   -2.3968   -0.0172 N   0  0  0  0  0  0  0  0  0  0  0  0
    6.0212   -2.6682   -0.0258 H   0  0  0  0  0  0  0  0  0  0  0  0
    4.0010   -3.2815   -0.0154 C   0  0  0  0  0  0  0  0  0  0  0  0
    4.0081   -4.6810   -0.0201 C   0  0  0  0  0  0  0  0  0  0  0  0
    2.7742   -5.3350   -0.0262 C   0  0  0  0  0  0  0  0  0  0  0  0
    1.5837   -4.6149   -0.0238 C   0  0  0  0  0  0  0  0  0  0  0  0
    1.5976   -3.2148   -0.0186 C   0  0  0  0  0  0  0  0  0  0  0  0
    2.8301   -2.5250   -0.0167 C   0  0  0  0  0  0  0  0  0  0  0  0
    3.2118   -1.1377   -0.0312 C   0  0  0  0  0  0  0  0  0  0  0  0
    0.6993    1.2455   -0.0305 H   0  0  0  0  0  0  0  0  0  0  0  0
    0.6044   -0.2847    0.8555 H   0  0  0  0  0  0  0  0  0  0  0  0
    0.5913   -0.2782   -0.9288 H   0  0  0  0  0  0  0  0  0  0  0  0
    4.3436    3.1806   -0.2018 H   0  0  0  0  0  0  0  0  0  0  0  0
    5.7798    2.6981    0.5218 H   0  0  0  0  0  0  0  0  0  0  0  0
    7.2554    1.1307   -0.0963 H   0  0  0  0  0  0  0  0  0  0  0  0
    7.2025   -0.3919   -0.9906 H   0  0  0  0  0  0  0  0  0  0  0  0
    7.2255   -0.3942    0.7890 H   0  0  0  0  0  0  0  0  0  0  0  0
    4.9353   -5.2450   -0.0250 H   0  0  0  0  0  0  0  0  0  0  0  0
    2.7448   -6.4223   -0.0356 H   0  0  0  0  0  0  0  0  0  0  0  0
    0.6328   -5.1420   -0.0316 H   0  0  0  0  0  0  0  0  0  0  0  0
    0.6575   -2.6722   -0.0222 H   0  0  0  0  0  0  0  0  0  0  0  0
  1  2  1  0  0  0  0
  1 18  1  0  0  0  0
  1 19  1  0  0  0  0
  1 20  1  0  0  0  0
  2  3  2  0  0  0  0
  2 17  1  0  0  0  0
  3  4  1  0  0  0  0
  4  5  1  0  0  0  0
  4  6  2  0  0  0  0
  5 21  1  0  0  0  0
  5 22  1  0  0  0  0
  6  7  1  0  0  0  0
  6  8  1  0  0  0  0
  7 23  1  0  0  0  0
  7 24  1  0  0  0  0
  7 25  1  0  0  0  0
  8  9  1  0  0  0  0
  8 17  2  0  0  0  0
  9 10  1  0  0  0  0
  9 11  1  0  0  0  0
 11 12  2  0  0  0  0
 11 16  1  0  0  0  0
 12 13  1  0  0  0  0
 12 26  1  0  0  0  0
 13 14  2  0  0  0  0
 13 27  1  0  0  0  0
 14 15  1  0  0  0  0
 14 28  1  0  0  0  0
 15 16  2  0  0  0  0
 15 29  1  0  0  0  0
 16 17  1  0  0  0  0
M  END
$$$$

 OpenBabel12201709243D

 16 15  0  0  0  0  0  0  0  0999 V2000
    2.7831    1.2942   -0.0464 C   0  0  0  0  0  0  0  0  0  0  0  0
    2.4299   -0.0766   -0.0635 O   0  0  0  0  0  0  0  0  0  0  0  0
    3.0065   -0.9413   -1.4465 P   0  0  0  0  0  0  0  0  0  0  0  0
    4.3132   -1.2461   -0.6966 O   0  0  0  0  0  0  0  0  0  0  0  0
    1.8330   -2.3383   -1.0658 C   0  0  0  0  0  0  0  0  0  0  0  0
    3.5832   -1.8059   -2.8295 O   0  0  0  0  0  0  0  0  0  0  0  0
    4.6184   -1.1666   -3.5556 C   0  0  0  0  0  0  0  0  0  0  0  0
    2.7560    1.6512    0.9852 H   0  0  0  0  0  0  0  0  0  0  0  0
    2.0605    1.8581   -0.6407 H   0  0  0  0  0  0  0  0  0  0  0  0
    3.7886    1.4463   -0.4499 H   0  0  0  0  0  0  0  0  0  0  0  0
    1.6127   -2.3759    0.0038 H   0  0  0  0  0  0  0  0  0  0  0  0
    2.2689   -3.2962   -1.3647 H   0  0  0  0  0  0  0  0  0  0  0  0
    0.9071   -2.1678   -1.6220 H   0  0  0  0  0  0  0  0  0  0  0  0
    5.0952   -1.9060   -4.2017 H   0  0  0  0  0  0  0  0  0  0  0  0
    5.3766   -0.7465   -2.8896 H   0  0  0  0  0  0  0  0  0  0  0  0
    4.1919   -0.3737   -4.1745 H   0  0  0  0  0  0  0  0  0  0  0  0
  1  2  1  0  0  0  0
  1  8  1  0  0  0  0
  1  9  1  0  0  0  0
  1 10  1  0  0  0  0
  2  3  1  0  0  0  0
  3  4  2  0  0  0  0
  3  5  1  0  0  0  0
  3  6  1  0  0  0  0
  5 11  1  0  0  0  0
  5 12  1  0  0  0  0
  5 13  1  0  0  0  0
  6  7  1  0  0  0  0
  7 14  1  0  0  0  0
  7 15  1  0  0  0  0
  7 16  1  0  0  0  0
M  END
$$$$

 OpenBabel12201709243D

 15 14  0  0  0  0  0  0  0  0999 V2000
    2.2597    0.8005    0.9822 C   0  0  0  0  0  0  0  0  0  0  0  0
    2.4996   -0.2297   -0.1130 C   0  0  0  0  0  0  0  0  0  0  0  0
    3.0647   -1.4734    0.4052 N   0  0  0  0  0  0  0  0  0  0  0  0
    2.2335   -2.4903    0.8936 N   0  0  0  0  0  0  0  0  0  0  0  0
    1.0258   -2.2659    0.7660 O   0  0  0  0  0  0  0  0  0  0  0  0
    4.4438   -1.6041    0.5034 C   0  0  0  0  0  0  0  0  0  0  0  0
    5.2474   -0.7383    0.1602 O   0  0  0  0  0  0  0  0  0  0  0  0
    4.9262   -2.7680    1.0265 N   0  0  0  0  0  0  0  0  0  0  0  0
    1.8605    1.7247    0.5501 H   0  0  0  0  0  0  0  0  0  0  0  0
    3.1900    1.0435    1.5063 H   0  0  0  0  0  0  0  0  0  0  0  0
    1.5425    0.4337    1.7236 H   0  0  0  0  0  0  0  0  0  0  0  0
    3.1947    0.1932   -0.8477 H   0  0  0  0  0  0  0  0  0  0  0  0
    1.5703   -0.4375   -0.6568 H   0  0  0  0  0  0  0  0  0  0  0  0
    4.3715   -3.6113    1.0012 H   0  0  0  0  0  0  0  0  0  0  0  0
    5.9297   -2.8832    0.9697 H   0  0  0  0  0  0  0  0  0  0  0  0
  1  2  1  0  0  0  0
  1  9  1  0  0  0  0
  1 10  1  0  0  0  0
  1 11  1  0  0  0  0
  2  3  1  0  0  0  0
  2 12  1  0  0  0  0
  2 13  1  0  0  0  0
  3  4  1  0  0  0  0
  3  6  1  0  0  0  0
  4  5  2  0  0  0  0
  6  7  2  0  0  0  0
  6  8  1  0  0  0  0
  8 14  1  0  0  0  0
  8 15  1  0  0  0  0
M  END
$$$$

 OpenBabel12201709243D

  8  7  0  0  0  0  0  0  0  0999 V2000
    1.0097    0.2301    0.7601 Cl  0  0  0  0  0  0  0  0  0  0  0  0
    2.6034   -0.0189   -0.0391 C   0  0  0  0  0  0  0  0  0  0  0  0
    3.6787    1.3319    0.4873 Cl  0  0  0  0  0  0  0  0  0  0  0  0
    3.2105   -1.4206    0.2017 C   0  0  0  0  0  0  0  0  0  0  0  0
    2.0729   -2.7238   -0.3180 Cl  0  0  0  0  0  0  0  0  0  0  0  0
    4.7088   -1.6370   -0.7801 Cl  0  0  0  0  0  0  0  0  0  0  0  0
    3.6293   -1.7178    1.9275 Cl  0  0  0  0  0  0  0  0  0  0  0  0
    2.4305    0.1398   -1.1084 H   0  0  0  0  0  0  0  0  0  0  0  0
  1  2  1  0  0  0  0
  2  3  1  0  0  0  0
  2  4  1  0  0  0  0
  2  8  1  0  0  0  0
  4  5  1  0  0  0  0
  4  6  1  0  0  0  0
  4  7  1  0  0  0  0
M  END
$$$$

 OpenBabel12201709243D

  8  7  0  0  0  0  0  0  0  0999 V2000
    0.8506   -0.0660    0.0447 O   0  0  0  0  0  0  0  0  0  0  0  0
    2.2405   -0.0564    0.0519 N   0  0  0  0  0  0  0  0  0  0  0  0
    2.7668   -0.7533   -0.8005 O   0  0  0  0  0  0  0  0  0  0  0  0
    3.0546    0.7465    1.0348 C   0  0  0  0  0  0  0  0  0  0  0  0
    2.0069    1.6934    2.1506 Cl  0  0  0  0  0  0  0  0  0  0  0  0
    4.0738   -0.3438    2.0346 Cl  0  0  0  0  0  0  0  0  0  0  0  0
    4.1151    1.9072    0.1655 Cl  0  0  0  0  0  0  0  0  0  0  0  0
    0.7229   -0.6773   -0.7026 H   0  0  0  0  0  0  0  0  0  0  0  0
  1  2  1  0  0  0  0
  1  8  1  0  0  0  0
  2  3  2  0  0  0  0
  2  4  1  0  0  0  0
  4  5  1  0  0  0  0
  4  6  1  0  0  0  0
  4  7  1  0  0  0  0
M  END
$$$$

 OpenBabel12201709243D

 22 24  0  0  1  0  0  0  0  0999 V2000
    0.7768   -0.3981   -0.1542 Cl  0  0  0  0  0  0  0  0  0  0  0  0
    2.4539    0.1590    0.0439 C   0  0  3  0  0  0  0  0  0  0  0  0
    3.2850   -0.9877    0.5353 C   0  0  0  0  0  0  0  0  0  0  0  0
    3.8619   -0.7619    1.7212 C   0  0  0  0  0  0  0  0  0  0  0  0
    3.5189    0.5875    2.2562 C   0  0  3  0  0  0  0  0  0  0  0  0
    2.5636    1.2028    1.1716 C   0  0  3  0  0  0  0  0  0  0  0  0
    3.2781    2.5581    0.8454 C   0  0  3  0  0  0  0  0  0  0  0  0
    2.2219    3.7251    0.0671 Cl  0  0  0  0  0  0  0  0  0  0  0  0
    4.5883    2.2661    0.1421 C   0  0  0  0  0  0  0  0  0  0  0  0
    5.4033    1.7074    1.0454 C   0  0  0  0  0  0  0  0  0  0  0  0
    6.9734    1.1228    0.7976 Cl  0  0  0  0  0  0  0  0  0  0  0  0
    4.6566    1.6552    2.3673 C   0  0  3  0  0  0  0  0  0  0  0  0
    5.6391    1.4800    3.8106 Cl  0  0  0  0  0  0  0  0  0  0  0  0
    3.8421    2.9809    2.2459 C   0  0  0  0  0  0  0  0  0  0  0  0
    2.5968    3.2225    3.5219 Cl  0  0  0  0  0  0  0  0  0  0  0  0
    4.8473    4.4833    2.2397 Cl  0  0  0  0  0  0  0  0  0  0  0  0
    4.8959    2.5785   -1.4920 Cl  0  0  0  0  0  0  0  0  0  0  0  0
    2.7963    0.5157   -0.9301 H   0  0  0  0  0  0  0  0  0  0  0  0
    3.3961   -1.9106   -0.0195 H   0  0  0  0  0  0  0  0  0  0  0  0
    4.4828   -1.4758    2.2490 H   0  0  0  0  0  0  0  0  0  0  0  0
    2.9789    0.4682    3.2038 H   0  0  0  0  0  0  0  0  0  0  0  0
    1.5815    1.4004    1.6217 H   0  0  0  0  0  0  0  0  0  0  0  0
  1  2  1  0  0  0  0
  2  3  1  0  0  0  0
  2  6  1  0  0  0  0
  2 18  1  0  0  0  0
  3  4  2  0  0  0  0
  3 19  1  0  0  0  0
  4  5  1  0  0  0  0
  4 20  1  0  0  0  0
  5  6  1  0  0  0  0
  5 12  1  0  0  0  0
  5 21  1  0  0  0  0
  6  7  1  0  0  0  0
  6 22  1  0  0  0  0
  7  8  1  0  0  0  0
  7  9  1  0  0  0  0
  7 14  1  0  0  0  0
  9 10  2  0  0  0  0
  9 17  1  0  0  0  0
 10 11  1  0  0  0  0
 10 12  1  0  0  0  0
 12 13  1  0  0  0  0
 12 14  1  0  0  0  0
 14 15  1  0  0  0  0
 14 16  1  0  0  0  0
M  END
$$$$

 OpenBabel12201709243D

 36 38  0  0  0  0  0  0  0  0999 V2000
    0.9882   -0.0921    0.1357 O   0  0  0  0  0  0  0  0  0  0  0  0
    2.9662   -0.0336    0.0878 Sn  0  0  0  0  0  0  0  0  0  0  0  0
    3.7090   -2.0127    0.2965 C   0  0  0  0  0  0  0  0  0  0  0  0
    3.3607   -2.9849   -0.6481 C   0  0  0  0  0  0  0  0  0  0  0  0
    3.8402   -4.2924   -0.5206 C   0  0  0  0  0  0  0  0  0  0  0  0
    4.6675   -4.6319    0.5538 C   0  0  0  0  0  0  0  0  0  0  0  0
    5.0172   -3.6626    1.5000 C   0  0  0  0  0  0  0  0  0  0  0  0
    4.5395   -2.3532    1.3717 C   0  0  0  0  0  0  0  0  0  0  0  0
    3.5480    0.7632   -1.7900 C   0  0  0  0  0  0  0  0  0  0  0  0
    4.3275    1.9240   -1.8626 C   0  0  0  0  0  0  0  0  0  0  0  0
    4.6872    2.4477   -3.1094 C   0  0  0  0  0  0  0  0  0  0  0  0
    4.2664    1.8142   -4.2834 C   0  0  0  0  0  0  0  0  0  0  0  0
    3.4883    0.6548   -4.2115 C   0  0  0  0  0  0  0  0  0  0  0  0
    3.1310    0.1290   -2.9665 C   0  0  0  0  0  0  0  0  0  0  0  0
    3.6236    1.2341    1.6595 C   0  0  0  0  0  0  0  0  0  0  0  0
    2.6704    1.8581    2.4734 C   0  0  0  0  0  0  0  0  0  0  0  0
    3.0769    2.7062    3.5077 C   0  0  0  0  0  0  0  0  0  0  0  0
    4.4378    2.9308    3.7335 C   0  0  0  0  0  0  0  0  0  0  0  0
    5.3923    2.3072    2.9231 C   0  0  0  0  0  0  0  0  0  0  0  0
    4.9870    1.4596    1.8855 C   0  0  0  0  0  0  0  0  0  0  0  0
    0.7393   -0.6044   -0.6740 H   0  0  0  0  0  0  0  0  0  0  0  0
    2.7190   -2.7306   -1.4804 H   0  0  0  0  0  0  0  0  0  0  0  0
    3.5686   -5.0421   -1.2529 H   0  0  0  0  0  0  0  0  0  0  0  0
    5.0363   -5.6447    0.6533 H   0  0  0  0  0  0  0  0  0  0  0  0
    5.6565   -3.9274    2.3323 H   0  0  0  0  0  0  0  0  0  0  0  0
    4.8125   -1.6088    2.1079 H   0  0  0  0  0  0  0  0  0  0  0  0
    4.6524    2.4211   -0.9586 H   0  0  0  0  0  0  0  0  0  0  0  0
    5.2888    3.3456   -3.1664 H   0  0  0  0  0  0  0  0  0  0  0  0
    4.5404    2.2220   -5.2479 H   0  0  0  0  0  0  0  0  0  0  0  0
    3.1593    0.1657   -5.1194 H   0  0  0  0  0  0  0  0  0  0  0  0
    2.5235   -0.7642   -2.9181 H   0  0  0  0  0  0  0  0  0  0  0  0
    1.6158    1.6912    2.3012 H   0  0  0  0  0  0  0  0  0  0  0  0
    2.3368    3.1904    4.1318 H   0  0  0  0  0  0  0  0  0  0  0  0
    4.7513    3.5881    4.5344 H   0  0  0  0  0  0  0  0  0  0  0  0
    6.4461    2.4818    3.1006 H   0  0  0  0  0  0  0  0  0  0  0  0
    5.7297    0.9803    1.2602 H   0  0  0  0  0  0  0  0  0  0  0  0
  1  2  1  0  0  0  0
  1 21  1  0  0  0  0
  2  3  1  0  0  0  0
  2  9  1  0  0  0  0
  2 15  1  0  0  0  0
  3  4  2  0  0  0  0
  3  8  1  0  0  0  0
  4  5  1  0  0  0  0
  4 22  1  0  0  0  0
  5  6  2  0  0  0  0
  5 23  1  0  0  0  0
  6  7  1  0  0  0  0
  6 24  1  0  0  0  0
  7  8  2  0  0  0  0
  7 25  1  0  0  0  0
  8 26  1  0  0  0  0
  9 10  2  0  0  0  0
  9 14  1  0  0  0  0
 10 11  1  0  0  0  0
 10 27  1  0  0  0  0
 11 12  2  0  0  0  0
 11 28  1  0  0  0  0
 12 13  1  0  0  0  0
 12 29  1  0  0  0  0
 13 14  2  0  0  0  0
 13 30  1  0  0  0  0
 14 31  1  0  0  0  0
 15 16  2  0  0  0  0
 15 20  1  0  0  0  0
 16 17  1  0  0  0  0
 16 32  1  0  0  0  0
 17 18  2  0  0  0  0
 17 33  1  0  0  0  0
 18 19  1  0  0  0  0
 18 34  1  0  0  0  0
 19 20  2  0  0  0  0
 19 35  1  0  0  0  0
 20 36  1  0  0  0  0
M  END
$$$$

 OpenBabel12201709243D

 25 27  0  0  0  0  0  0  0  0999 V2000
    1.0591   -0.1356    0.0019 C   0  0  0  0  0  0  0  0  0  0  0  0
    2.5000   -0.0870    0.0023 N   0  0  0  0  0  0  0  0  0  0  0  0
    3.3819   -1.1388    0.0086 C   0  0  0  0  0  0  0  0  0  0  0  0
    3.0044   -2.4212    0.0224 N   0  0  0  0  0  0  0  0  0  0  0  0
    4.6232   -0.7179    0.0025 N   0  0  0  0  0  0  0  0  0  0  0  0
    4.5565    0.6591   -0.0018 C   0  0  0  0  0  0  0  0  0  0  0  0
    3.2313    1.0817   -0.0009 C   0  0  0  0  0  0  0  0  0  0  0  0
    2.8696    2.4305   -0.0025 C   0  0  0  0  0  0  0  0  0  0  0  0
    3.9137    3.3665   -0.0046 C   0  0  0  0  0  0  0  0  0  0  0  0
    5.2540    3.0046   -0.0062 C   0  0  0  0  0  0  0  0  0  0  0  0
    6.1981    3.9624   -0.0079 N   0  0  0  0  0  0  0  0  0  0  0  0
    7.4950    3.5738   -0.0092 C   0  0  0  0  0  0  0  0  0  0  0  0
    7.9141    2.2543   -0.0091 C   0  0  0  0  0  0  0  0  0  0  0  0
    6.9428    1.2622   -0.0068 C   0  0  0  0  0  0  0  0  0  0  0  0
    5.5878    1.6331   -0.0053 C   0  0  0  0  0  0  0  0  0  0  0  0
    0.7010   -1.1655    0.0009 H   0  0  0  0  0  0  0  0  0  0  0  0
    0.6977    0.3740   -0.8955 H   0  0  0  0  0  0  0  0  0  0  0  0
    0.6971    0.3734    0.8993 H   0  0  0  0  0  0  0  0  0  0  0  0
    2.0548   -2.7624   -0.0130 H   0  0  0  0  0  0  0  0  0  0  0  0
    3.7285   -3.1316   -0.0022 H   0  0  0  0  0  0  0  0  0  0  0  0
    1.8341    2.7526   -0.0013 H   0  0  0  0  0  0  0  0  0  0  0  0
    3.6682    4.4272   -0.0046 H   0  0  0  0  0  0  0  0  0  0  0  0
    8.2154    4.3873   -0.0106 H   0  0  0  0  0  0  0  0  0  0  0  0
    8.9692    2.0071   -0.0105 H   0  0  0  0  0  0  0  0  0  0  0  0
    7.2256    0.2125   -0.0063 H   0  0  0  0  0  0  0  0  0  0  0  0
  1  2  1  0  0  0  0
  1 16  1  0  0  0  0
  1 17  1  0  0  0  0
  1 18  1  0  0  0  0
  2  3  1  0  0  0  0
  2  7  1  0  0  0  0
  3  4  1  0  0  0  0
  3  5  2  0  0  0  0
  4 19  1  0  0  0  0
  4 20  1  0  0  0  0
  5  6  1  0  0  0  0
  6  7  2  0  0  0  0
  6 15  1  0  0  0  0
  7  8  1  0  0  0  0
  8  9  2  0  0  0  0
  8 21  1  0  0  0  0
  9 10  1  0  0  0  0
  9 22  1  0  0  0  0
 10 11  2  0  0  0  0
 10 15  1  0  0  0  0
 11 12  1  0  0  0  0
 12 13  2  0  0  0  0
 12 23  1  0  0  0  0
 13 14  1  0  0  0  0
 13 24  1  0  0  0  0
 14 15  2  0  0  0  0
 14 25  1  0  0  0  0
M  END
$$$$

 OpenBabel12201709243D

  4  3  0  0  0  0  0  0  0  0999 V2000
    1.2402    0.1139    0.1277 Na  0  0  0  0  0  0  0  0  0  0  0  0
    3.2541    0.0830    0.0799 O   0  0  0  0  0  0  0  0  0  0  0  0
    3.9462    0.6847    1.0216 N   0  0  0  0  0  0  0  0  0  0  0  0
    3.3824    1.2509    1.9071 O   0  0  0  0  0  0  0  0  0  0  0  0
  1  2  1  0  0  0  0
  2  3  1  0  0  0  0
  3  4  2  0  0  0  0
M  END
$$$$

 OpenBabel12201709243D

  2  1  0  0  0  0  0  0  0  0999 V2000
    1.1481   -0.0165    0.0984 Na  0  0  0  0  0  0  0  0  0  0  0  0
    3.5454   -0.0165    0.0984 Cl  0  0  0  0  0  0  0  0  0  0  0  0
  1  2  1  0  0  0  0
M  END
$$$$

 OpenBabel12201709243D

  9  9  0  0  1  0  0  0  0  0999 V2000
    1.0680    0.0318    0.1083 O   0  0  0  0  0  0  0  0  0  0  0  0
    2.2824   -0.1041    0.0298 C   0  0  0  0  0  0  0  0  0  0  0  0
    2.9881   -1.0851    0.8715 C   0  0  3  0  0  0  0  0  0  0  0  0
    3.2023   -2.4904    0.3793 C   0  0  0  0  0  0  0  0  0  0  0  0
    4.2549   -1.5166    0.3490 O   0  0  0  0  0  0  0  0  0  0  0  0
    2.8988    0.4995   -0.6567 H   0  0  0  0  0  0  0  0  0  0  0  0
    2.9096   -0.9305    1.9399 H   0  0  0  0  0  0  0  0  0  0  0  0
    2.7586   -2.7860   -0.5636 H   0  0  0  0  0  0  0  0  0  0  0  0
    3.2739   -3.2839    1.1127 H   0  0  0  0  0  0  0  0  0  0  0  0
  1  2  2  0  0  0  0
  2  3  1  0  0  0  0
  2  6  1  0  0  0  0
  3  4  1  0  0  0  0
  3  5  1  0  0  0  0
  3  7  1  0  0  0  0
  4  5  1  0  0  0  0
  4  8  1  0  0  0  0
  4  9  1  0  0  0  0
M  END
$$$$

 OpenBabel12201709243D

  2  1  0  0  0  0  0  0  0  0999 V2000
    1.0664    0.0205    0.0775 F   0  0  0  0  0  0  0  0  0  0  0  0
    3.0440    0.0205    0.0775 Na  0  0  0  0  0  0  0  0  0  0  0  0
  1  2  1  0  0  0  0
M  END
$$$$

 OpenBabel12201709243D

  3  2  0  0  0  0  0  0  0  0999 V2000
    1.2736   -0.0026   -0.0658 Na  0  0  0  0  0  0  0  0  0  0  0  0
    3.3049    0.1126   -0.0002 O   0  0  0  0  0  0  0  0  0  0  0  0
    3.8377   -1.2925   -0.7994 Cl  0  0  0  0  0  0  0  0  0  0  0  0
  1  2  1  0  0  0  0
  2  3  1  0  0  0  0
M  END
$$$$

 OpenBabel12201709243D

 47 51  0  0  1  0  0  0  0  0999 V2000
    3.2068   -0.2112   -2.6981 C   0  0  0  0  0  0  0  0  0  0  0  0
    3.4133    0.6301   -1.4075 C   0  0  3  0  0  0  0  0  0  0  0  0
    2.1170    1.4773   -1.7660 C   0  0  3  0  0  0  0  0  0  0  0  0
    1.2799    1.8398   -3.0042 C   0  0  3  0  0  0  0  0  0  0  0  0
    2.1105    2.5919   -4.0404 C   0  0  0  0  0  0  0  0  0  0  0  0
    3.0340    3.3461   -3.7729 O   0  0  0  0  0  0  0  0  0  0  0  0
    1.7647    2.3212   -5.3144 O   0  0  0  0  0  0  0  0  0  0  0  0
    0.1960    2.7081   -2.2885 C   0  0  3  0  0  0  0  0  0  0  0  0
   -0.9211    3.2430   -3.1703 C   0  0  0  0  0  0  0  0  0  0  0  0
   -1.0481    4.6539   -2.6198 C   0  0  0  0  0  0  0  0  0  0  0  0
   -1.2813    5.7442   -3.3789 C   0  0  0  0  0  0  0  0  0  0  0  0
   -0.6705    4.7700   -1.1111 C   0  0  3  0  0  0  0  0  0  0  0  0
   -2.1146    4.6233   -0.9835 O   0  0  0  0  0  0  0  0  0  0  0  0
    0.6386    4.0527   -1.6740 C   0  0  0  0  0  0  0  0  0  0  0  0
   -0.1960    1.7506   -1.1087 C   0  0  3  0  0  0  0  0  0  0  0  0
   -0.9654    2.4149    0.0303 C   0  0  0  0  0  0  0  0  0  0  0  0
   -0.5936    3.8947    0.2348 C   0  0  0  0  0  0  0  0  0  0  0  0
    1.1506    1.0810   -0.6696 C   0  0  3  0  0  0  0  0  0  0  0  0
    1.9288    1.6677    0.3548 O   0  0  0  0  0  0  0  0  0  0  0  0
    3.2505    1.5659   -0.1065 C   0  0  0  0  0  0  0  0  0  0  0  0
    4.1797    2.1277    0.4495 O   0  0  0  0  0  0  0  0  0  0  0  0
    3.5344   -0.5630   -0.3483 C   0  0  3  0  0  0  0  0  0  0  0  0
    4.5240   -1.5081   -0.7351 O   0  0  0  0  0  0  0  0  0  0  0  0
    2.1767   -1.1885   -0.1790 C   0  0  0  0  0  0  0  0  0  0  0  0
    1.0645   -0.4235   -0.3467 C   0  0  0  0  0  0  0  0  0  0  0  0
    2.1741   -0.5665   -2.8600 H   0  0  0  0  0  0  0  0  0  0  0  0
    3.7690   -1.1505   -2.7321 H   0  0  0  0  0  0  0  0  0  0  0  0
    3.5393    0.3185   -3.5934 H   0  0  0  0  0  0  0  0  0  0  0  0
    2.5254    2.5044   -1.6596 H   0  0  0  0  0  0  0  0  0  0  0  0
    0.8167    0.9598   -3.4641 H   0  0  0  0  0  0  0  0  0  0  0  0
    1.0337    1.6872   -5.4276 H   0  0  0  0  0  0  0  0  0  0  0  0
   -1.8569    2.6873   -3.0715 H   0  0  0  0  0  0  0  0  0  0  0  0
   -0.6359    3.2810   -4.2287 H   0  0  0  0  0  0  0  0  0  0  0  0
   -1.4645    5.6725   -4.4485 H   0  0  0  0  0  0  0  0  0  0  0  0
   -1.2908    6.7355   -2.9406 H   0  0  0  0  0  0  0  0  0  0  0  0
   -2.4264    5.4304   -0.5388 H   0  0  0  0  0  0  0  0  0  0  0  0
    1.4186    3.9707   -0.9071 H   0  0  0  0  0  0  0  0  0  0  0  0
    1.1781    4.6910   -2.4010 H   0  0  0  0  0  0  0  0  0  0  0  0
   -0.8410    0.9638   -1.5336 H   0  0  0  0  0  0  0  0  0  0  0  0
   -0.8337    1.8611    0.9668 H   0  0  0  0  0  0  0  0  0  0  0  0
   -2.0385    2.3494   -0.1944 H   0  0  0  0  0  0  0  0  0  0  0  0
    0.3871    3.9726    0.7251 H   0  0  0  0  0  0  0  0  0  0  0  0
   -1.2606    4.3138    1.0054 H   0  0  0  0  0  0  0  0  0  0  0  0
    3.8823   -0.2929    0.6644 H   0  0  0  0  0  0  0  0  0  0  0  0
    5.3948   -1.0304   -0.7407 H   0  0  0  0  0  0  0  0  0  0  0  0
    2.1331   -2.2285    0.1306 H   0  0  0  0  0  0  0  0  0  0  0  0
    0.0933   -0.8717   -0.1709 H   0  0  0  0  0  0  0  0  0  0  0  0
  1  2  1  0  0  0  0
  1 26  1  0  0  0  0
  1 27  1  0  0  0  0
  1 28  1  0  0  0  0
  2  3  1  0  0  0  0
  2 20  1  0  0  0  0
  2 22  1  0  0  0  0
  3  4  1  0  0  0  0
  3 18  1  0  0  0  0
  3 29  1  0  0  0  0
  4  5  1  0  0  0  0
  4  8  1  0  0  0  0
  4 30  1  0  0  0  0
  5  6  2  0  0  0  0
  5  7  1  0  0  0  0
  7 31  1  0  0  0  0
  8  9  1  0  0  0  0
  8 14  1  0  0  0  0
  8 15  1  0  0  0  0
  9 10  1  0  0  0  0
  9 32  1  0  0  0  0
  9 33  1  0  0  0  0
 10 11  2  0  0  0  0
 10 12  1  0  0  0  0
 11 34  1  0  0  0  0
 11 35  1  0  0  0  0
 12 13  1  0  0  0  0
 12 14  1  0  0  0  0
 12 17  1  0  0  0  0
 13 36  1  0  0  0  0
 14 37  1  0  0  0  0
 14 38  1  0  0  0  0
 15 16  1  0  0  0  0
 15 18  1  0  0  0  0
 15 39  1  0  0  0  0
 16 17  1  0  0  0  0
 16 40  1  0  0  0  0
 16 41  1  0  0  0  0
 17 42  1  0  0  0  0
 17 43  1  0  0  0  0
 18 19  1  0  0  0  0
 18 25  1  0  0  0  0
 19 20  1  0  0  0  0
 20 21  2  0  0  0  0
 22 23  1  0  0  0  0
 22 24  1  0  0  0  0
 22 44  1  0  0  0  0
 23 45  1  0  0  0  0
 24 25  2  0  0  0  0
 24 46  1  0  0  0  0
 25 47  1  0  0  0  0
M  END
$$$$

 OpenBabel12201709243D

 11 11  0  0  0  0  0  0  0  0999 V2000
    0.9657    0.1496    0.0453 Cl  0  0  0  0  0  0  0  0  0  0  0  0
    2.6644    0.0660    0.0533 C   0  0  0  0  0  0  0  0  0  0  0  0
    3.4087   -1.0498    0.0593 C   0  0  0  0  0  0  0  0  0  0  0  0
    2.8503   -2.6597    0.0605 Cl  0  0  0  0  0  0  0  0  0  0  0  0
    4.8726   -0.6934    0.0653 C   0  0  0  0  0  0  0  0  0  0  0  0
    5.6685   -1.2950    1.5369 Cl  0  0  0  0  0  0  0  0  0  0  0  0
    5.6820   -1.3017   -1.3962 Cl  0  0  0  0  0  0  0  0  0  0  0  0
    4.8120    0.8123    0.0616 C   0  0  0  0  0  0  0  0  0  0  0  0
    3.5363    1.2205    0.0547 C   0  0  0  0  0  0  0  0  0  0  0  0
    2.9890    2.8310    0.0485 Cl  0  0  0  0  0  0  0  0  0  0  0  0
    6.2065    1.7916    0.0658 Cl  0  0  0  0  0  0  0  0  0  0  0  0
  1  2  1  0  0  0  0
  2  3  2  0  0  0  0
  2  9  1  0  0  0  0
  3  4  1  0  0  0  0
  3  5  1  0  0  0  0
  5  6  1  0  0  0  0
  5  7  1  0  0  0  0
  5  8  1  0  0  0  0
  8  9  2  0  0  0  0
  8 11  1  0  0  0  0
  9 10  1  0  0  0  0
M  END
$$$$

 OpenBabel12201709243D

 25 24  0  0  0  0  0  0  0  0999 V2000
    1.0258   -0.2043   -0.0092 C   0  0  0  0  0  0  0  0  0  0  0  0
    2.5372   -0.0182    0.0028 C   0  0  0  0  0  0  0  0  0  0  0  0
    3.1157    1.1607   -0.8110 C   0  0  0  0  0  0  0  0  0  0  0  0
    2.7048    0.8344   -2.7358 Br  0  0  0  0  0  0  0  0  0  0  0  0
    2.5548    2.5523   -0.4589 C   0  0  0  0  0  0  0  0  0  0  0  0
    2.8802    3.0251    0.9551 C   0  0  0  0  0  0  0  0  0  0  0  0
    4.6575    1.1270   -0.6894 C   0  0  0  0  0  0  0  0  0  0  0  0
    5.2071    0.6242    0.2924 O   0  0  0  0  0  0  0  0  0  0  0  0
    5.3651    1.8087   -1.6641 N   0  0  0  0  0  0  0  0  0  0  0  0
    6.7202    1.7933   -1.8420 C   0  0  0  0  0  0  0  0  0  0  0  0
    7.2263    2.1187   -2.9098 O   0  0  0  0  0  0  0  0  0  0  0  0
    7.4719    1.4025   -0.7896 N   0  0  0  0  0  0  0  0  0  0  0  0
    0.7754   -1.1447    0.4952 H   0  0  0  0  0  0  0  0  0  0  0  0
    0.6185   -0.2651   -1.0213 H   0  0  0  0  0  0  0  0  0  0  0  0
    0.5194    0.6029    0.5266 H   0  0  0  0  0  0  0  0  0  0  0  0
    2.9934   -0.9540   -0.3507 H   0  0  0  0  0  0  0  0  0  0  0  0
    2.8453    0.0729    1.0523 H   0  0  0  0  0  0  0  0  0  0  0  0
    1.4652    2.5634   -0.5858 H   0  0  0  0  0  0  0  0  0  0  0  0
    2.9440    3.3086   -1.1540 H   0  0  0  0  0  0  0  0  0  0  0  0
    2.5930    2.2898    1.7113 H   0  0  0  0  0  0  0  0  0  0  0  0
    2.3404    3.9534    1.1726 H   0  0  0  0  0  0  0  0  0  0  0  0
    3.9489    3.2364    1.0639 H   0  0  0  0  0  0  0  0  0  0  0  0
    4.8719    2.0533   -2.5100 H   0  0  0  0  0  0  0  0  0  0  0  0
    7.0227    0.9143   -0.0169 H   0  0  0  0  0  0  0  0  0  0  0  0
    8.4640    1.2774   -0.9243 H   0  0  0  0  0  0  0  0  0  0  0  0
  1  2  1  0  0  0  0
  1 13  1  0  0  0  0
  1 14  1  0  0  0  0
  1 15  1  0  0  0  0
  2  3  1  0  0  0  0
  2 16  1  0  0  0  0
  2 17  1  0  0  0  0
  3  4  1  0  0  0  0
  3  5  1  0  0  0  0
  3  7  1  0  0  0  0
  5  6  1  0  0  0  0
  5 18  1  0  0  0  0
  5 19  1  0  0  0  0
  6 20  1  0  0  0  0
  6 21  1  0  0  0  0
  6 22  1  0  0  0  0
  7  8  2  0  0  0  0
  7  9  1  0  0  0  0
  9 10  1  0  0  0  0
  9 23  1  0  0  0  0
 10 11  2  0  0  0  0
 10 12  1  0  0  0  0
 12 24  1  0  0  0  0
 12 25  1  0  0  0  0
M  END
$$$$

 OpenBabel12201709243D

 13 13  0  0  0  0  0  0  0  0999 V2000
    1.0098    0.0540    0.1066 O   0  0  0  0  0  0  0  0  0  0  0  0
    2.4622    0.0537    0.0994 S   0  0  0  0  0  0  0  0  0  0  0  0
    3.2220    0.0534    1.3351 O   0  0  0  0  0  0  0  0  0  0  0  0
    3.0291   -1.2916   -0.9360 C   0  0  0  0  0  0  0  0  0  0  0  0
    3.4019   -0.6147   -2.2196 C   0  0  0  0  0  0  0  0  0  0  0  0
    3.4023    0.7253   -2.2188 C   0  0  0  0  0  0  0  0  0  0  0  0
    3.0301    1.4023   -0.9350 C   0  0  0  0  0  0  0  0  0  0  0  0
    2.2173   -2.0099   -1.0661 H   0  0  0  0  0  0  0  0  0  0  0  0
    3.9000   -1.7603   -0.4708 H   0  0  0  0  0  0  0  0  0  0  0  0
    3.6520   -1.1986   -3.0980 H   0  0  0  0  0  0  0  0  0  0  0  0
    3.6524    1.3098   -3.0970 H   0  0  0  0  0  0  0  0  0  0  0  0
    2.2182    2.1197   -1.0647 H   0  0  0  0  0  0  0  0  0  0  0  0
    3.9006    1.8697   -0.4695 H   0  0  0  0  0  0  0  0  0  0  0  0
  1  2  2  0  0  0  0
  2  3  2  0  0  0  0
  2  4  1  0  0  0  0
  2  7  1  0  0  0  0
  4  5  1  0  0  0  0
  4  8  1  0  0  0  0
  4  9  1  0  0  0  0
  5  6  2  0  0  0  0
  5 10  1  0  0  0  0
  6  7  1  0  0  0  0
  6 11  1  0  0  0  0
  7 12  1  0  0  0  0
  7 13  1  0  0  0  0
M  END
$$$$

 OpenBabel12201709243D

 29 30  0  0  1  0  0  0  0  0999 V2000
    6.3639    0.2624    0.8045 C   0  0  0  0  0  0  0  0  0  0  0  0
    5.1381   -0.6353    0.8006 C   0  0  0  0  0  0  0  0  0  0  0  0
    5.0628   -1.2883   -0.4709 O   0  0  0  0  0  0  0  0  0  0  0  0
    4.4013   -0.6174   -1.4527 C   0  0  0  0  0  0  0  0  0  0  0  0
    3.6879    0.3658   -1.3097 O   0  0  0  0  0  0  0  0  0  0  0  0
    4.8301   -1.0948   -2.7706 C   0  0  3  0  0  0  0  0  0  0  0  0
    4.4780   -2.4482   -3.0950 O   0  0  0  0  0  0  0  0  0  0  0  0
    3.8834   -1.4204   -3.9142 C   0  0  3  0  0  0  0  0  0  0  0  0
    2.3924   -1.3699   -3.7604 C   0  0  0  0  0  0  0  0  0  0  0  0
    4.4534   -1.2071   -5.3015 C   0  0  0  0  0  0  0  0  0  0  0  0
    4.9712   -2.2765   -6.0514 C   0  0  0  0  0  0  0  0  0  0  0  0
    5.6192   -2.0645   -7.2697 C   0  0  0  0  0  0  0  0  0  0  0  0
    5.7502   -0.7731   -7.7720 C   0  0  0  0  0  0  0  0  0  0  0  0
    5.2140    0.3012   -7.0674 C   0  0  0  0  0  0  0  0  0  0  0  0
    4.5696    0.0839   -5.8469 C   0  0  0  0  0  0  0  0  0  0  0  0
    6.5116    0.7266    1.7822 H   0  0  0  0  0  0  0  0  0  0  0  0
    6.2698    1.0510    0.0503 H   0  0  0  0  0  0  0  0  0  0  0  0
    7.2600   -0.3128    0.5453 H   0  0  0  0  0  0  0  0  0  0  0  0
    4.2256   -0.0743    1.0292 H   0  0  0  0  0  0  0  0  0  0  0  0
    5.2472   -1.4147    1.5612 H   0  0  0  0  0  0  0  0  0  0  0  0
    5.8290   -0.7696   -3.0359 H   0  0  0  0  0  0  0  0  0  0  0  0
    2.0700   -1.6798   -2.7606 H   0  0  0  0  0  0  0  0  0  0  0  0
    1.9135   -2.0445   -4.4794 H   0  0  0  0  0  0  0  0  0  0  0  0
    2.0160   -0.3576   -3.9391 H   0  0  0  0  0  0  0  0  0  0  0  0
    4.8989   -3.2891   -5.6576 H   0  0  0  0  0  0  0  0  0  0  0  0
    6.0370   -2.9072   -7.8138 H   0  0  0  0  0  0  0  0  0  0  0  0
    6.2744   -0.6042   -8.7087 H   0  0  0  0  0  0  0  0  0  0  0  0
    5.3121    1.3108   -7.4579 H   0  0  0  0  0  0  0  0  0  0  0  0
    4.1765    0.9387   -5.2984 H   0  0  0  0  0  0  0  0  0  0  0  0
  1  2  1  0  0  0  0
  1 16  1  0  0  0  0
  1 17  1  0  0  0  0
  1 18  1  0  0  0  0
  2  3  1  0  0  0  0
  2 19  1  0  0  0  0
  2 20  1  0  0  0  0
  3  4  1  0  0  0  0
  4  5  2  0  0  0  0
  4  6  1  0  0  0  0
  6  7  1  0  0  0  0
  6  8  1  0  0  0  0
  6 21  1  0  0  0  0
  7  8  1  0  0  0  0
  8  9  1  0  0  0  0
  8 10  1  0  0  0  0
  9 22  1  0  0  0  0
  9 23  1  0  0  0  0
  9 24  1  0  0  0  0
 10 11  2  0  0  0  0
 10 15  1  0  0  0  0
 11 12  1  0  0  0  0
 11 25  1  0  0  0  0
 12 13  2  0  0  0  0
 12 26  1  0  0  0  0
 13 14  1  0  0  0  0
 13 27  1  0  0  0  0
 14 15  2  0  0  0  0
 14 28  1  0  0  0  0
 15 29  1  0  0  0  0
M  END
$$$$

 OpenBabel12201709243D

  4  3  0  0  0  0  0  0  0  0999 V2000
    0.9733    0.0803   -0.0533 Cl  0  0  0  0  0  0  0  0  0  0  0  0
    3.3133    0.0803   -0.0533 Fe  0  0  0  0  0  0  0  0  0  0  0  0
       nan       nan       nan Cl  0  0  0  0  0  0  0  0  0  0  0  0
       nan       nan       nan Cl  0  0  0  0  0  0  0  0  0  0  0  0
  1  2  1  0  0  0  0
  2  3  1  0  0  0  0
  2  4  1  0  0  0  0
M  END
$$$$

 OpenBabel12201709243D

 28 30  0  0  0  0  0  0  0  0999 V2000
    0.8853    0.2697    0.0643 C   0  0  0  0  0  0  0  0  0  0  0  0
    2.3768    0.1068    0.0644 C   0  0  0  0  0  0  0  0  0  0  0  0
    3.1954    1.2596    0.0628 C   0  0  0  0  0  0  0  0  0  0  0  0
    4.5824    1.2274    0.0631 C   0  0  0  0  0  0  0  0  0  0  0  0
    5.2738    2.3820    0.0616 N   0  0  0  0  0  0  0  0  0  0  0  0
    6.6251    2.3115    0.0614 C   0  0  0  0  0  0  0  0  0  0  0  0
    7.3424    1.1280    0.0628 C   0  0  0  0  0  0  0  0  0  0  0  0
    6.6304   -0.0640    0.0642 C   0  0  0  0  0  0  0  0  0  0  0  0
    5.2252   -0.0232    0.0642 C   0  0  0  0  0  0  0  0  0  0  0  0
    4.4512   -1.2116    0.0653 C   0  0  0  0  0  0  0  0  0  0  0  0
    4.8645   -2.5263    0.0652 N   0  0  0  0  0  0  0  0  0  0  0  0
    3.7718   -3.2449    0.0641 C   0  0  0  0  0  0  0  0  0  0  0  0
    3.7373   -4.5820    0.0590 N   0  0  0  0  0  0  0  0  0  0  0  0
    2.6498   -2.4499    0.0658 N   0  0  0  0  0  0  0  0  0  0  0  0
    1.2791   -2.8967    0.0652 C   0  0  0  0  0  0  0  0  0  0  0  0
    3.0577   -1.1267    0.0654 C   0  0  0  0  0  0  0  0  0  0  0  0
    0.5936    1.3250    0.0641 H   0  0  0  0  0  0  0  0  0  0  0  0
    0.4546   -0.1895    0.9586 H   0  0  0  0  0  0  0  0  0  0  0  0
    0.4544   -0.1901   -0.8298 H   0  0  0  0  0  0  0  0  0  0  0  0
    2.7253    2.2432    0.0617 H   0  0  0  0  0  0  0  0  0  0  0  0
    7.1333    3.2718    0.0599 H   0  0  0  0  0  0  0  0  0  0  0  0
    8.4262    1.1351    0.0625 H   0  0  0  0  0  0  0  0  0  0  0  0
    7.1520   -1.0176    0.0652 H   0  0  0  0  0  0  0  0  0  0  0  0
    4.6207   -5.0803    0.0700 H   0  0  0  0  0  0  0  0  0  0  0  0
    2.9091   -5.1589    0.0765 H   0  0  0  0  0  0  0  0  0  0  0  0
    1.2179   -3.9854    0.0656 H   0  0  0  0  0  0  0  0  0  0  0  0
    0.7907   -2.5184   -0.8359 H   0  0  0  0  0  0  0  0  0  0  0  0
    0.7897   -2.5178    0.9655 H   0  0  0  0  0  0  0  0  0  0  0  0
  1  2  1  0  0  0  0
  1 17  1  0  0  0  0
  1 18  1  0  0  0  0
  1 19  1  0  0  0  0
  2  3  2  0  0  0  0
  2 16  1  0  0  0  0
  3  4  1  0  0  0  0
  3 20  1  0  0  0  0
  4  5  2  0  0  0  0
  4  9  1  0  0  0  0
  5  6  1  0  0  0  0
  6  7  2  0  0  0  0
  6 21  1  0  0  0  0
  7  8  1  0  0  0  0
  7 22  1  0  0  0  0
  8  9  2  0  0  0  0
  8 23  1  0  0  0  0
  9 10  1  0  0  0  0
 10 11  1  0  0  0  0
 10 16  2  0  0  0  0
 11 12  2  0  0  0  0
 12 13  1  0  0  0  0
 12 14  1  0  0  0  0
 13 24  1  0  0  0  0
 13 25  1  0  0  0  0
 14 15  1  0  0  0  0
 14 16  1  0  0  0  0
 15 26  1  0  0  0  0
 15 27  1  0  0  0  0
 15 28  1  0  0  0  0
M  END
$$$$

 OpenBabel12201709243D

 18 18  0  0  0  0  0  0  0  0999 V2000
    2.7446   -1.4344    0.0587 N   0  0  0  0  0  0  0  0  0  0  0  0
    2.4463   -0.0932    0.1266 C   0  0  0  0  0  0  0  0  0  0  0  0
    1.5531    0.4451   -0.6607 N   0  0  0  0  0  0  0  0  0  0  0  0
    0.9894   -0.5082   -1.5282 O   0  0  0  0  0  0  0  0  0  0  0  0
    3.1021    0.8036    1.0633 C   0  0  0  0  0  0  0  0  0  0  0  0
    3.0177    2.1722    1.2301 C   0  0  0  0  0  0  0  0  0  0  0  0
    3.8384    2.5032    2.3314 C   0  0  0  0  0  0  0  0  0  0  0  0
    4.3912    1.3210    2.7873 C   0  0  0  0  0  0  0  0  0  0  0  0
    3.9620    0.2824    1.9968 O   0  0  0  0  0  0  0  0  0  0  0  0
    5.2540    1.1718    3.8917 N   0  0  0  0  0  0  0  0  0  0  0  0
    5.5809    2.1453    4.5398 O   0  0  0  0  0  0  0  0  0  0  0  0
    5.7191   -0.0863    4.2365 O   0  0  0  0  0  0  0  0  0  0  0  0
    2.3858   -1.8276   -0.8070 H   0  0  0  0  0  0  0  0  0  0  0  0
    3.7103   -1.6646    0.2475 H   0  0  0  0  0  0  0  0  0  0  0  0
    0.2589   -0.0038   -1.9348 H   0  0  0  0  0  0  0  0  0  0  0  0
    2.4157    2.8404    0.6288 H   0  0  0  0  0  0  0  0  0  0  0  0
    4.0038    3.4828    2.7610 H   0  0  0  0  0  0  0  0  0  0  0  0
    5.2755   -0.6382    3.5742 H   0  0  0  0  0  0  0  0  0  0  0  0
  1  2  1  0  0  0  0
  1 13  1  0  0  0  0
  1 14  1  0  0  0  0
  2  3  2  3  0  0  0
  2  5  1  0  0  0  0
  3  4  1  0  0  0  0
  4 15  1  0  0  0  0
  5  6  2  0  0  0  0
  5  9  1  0  0  0  0
  6  7  1  0  0  0  0
  6 16  1  0  0  0  0
  7  8  2  0  0  0  0
  7 17  1  0  0  0  0
  8  9  1  0  0  0  0
  8 10  1  0  0  0  0
 10 11  2  0  0  0  0
 10 12  1  0  0  0  0
 12 18  1  0  0  0  0
M  END
$$$$

 OpenBabel12201709243D

  4  3  0  0  0  0  0  0  0  0999 V2000
    0.9687   -0.0644   -0.0312 O   0  0  0  0  0  0  0  0  0  0  0  0
    2.4168   -0.0109   -0.1421 O   0  0  0  0  0  0  0  0  0  0  0  0
    0.7752    0.3517   -0.8928 H   0  0  0  0  0  0  0  0  0  0  0  0
    2.6103   -0.4269    0.7195 H   0  0  0  0  0  0  0  0  0  0  0  0
  1  2  1  0  0  0  0
  1  3  1  0  0  0  0
  2  4  1  0  0  0  0
M  END
$$$$

 OpenBabel12201709243D

 27 29  0  0  0  0  0  0  0  0999 V2000
    1.0640    0.1032   -0.0594 C   0  0  0  0  0  0  0  0  0  0  0  0
    2.5595    0.0543   -0.0592 C   0  0  0  0  0  0  0  0  0  0  0  0
    3.2323   -1.1616   -0.0601 C   0  0  0  0  0  0  0  0  0  0  0  0
    4.5823   -1.2654   -0.0615 N   0  0  0  0  0  0  0  0  0  0  0  0
    5.2684   -0.1086   -0.0615 C   0  0  0  0  0  0  0  0  0  0  0  0
    6.6546   -0.1388   -0.0619 C   0  0  0  0  0  0  0  0  0  0  0  0
    7.4310    1.0241   -0.0619 C   0  0  0  0  0  0  0  0  0  0  0  0
    6.7517    2.2449   -0.0576 C   0  0  0  0  0  0  0  0  0  0  0  0
    7.1805    3.5532   -0.0525 N   0  0  0  0  0  0  0  0  0  0  0  0
    8.5517    3.9999   -0.0544 C   0  0  0  0  0  0  0  0  0  0  0  0
    6.0742    4.3656   -0.0356 C   0  0  0  0  0  0  0  0  0  0  0  0
    6.1578    5.7002   -0.0045 N   0  0  0  0  0  0  0  0  0  0  0  0
    4.9703    3.6638   -0.0464 N   0  0  0  0  0  0  0  0  0  0  0  0
    5.3565    2.3330   -0.0544 C   0  0  0  0  0  0  0  0  0  0  0  0
    4.5939    1.1359   -0.0587 C   0  0  0  0  0  0  0  0  0  0  0  0
    3.2337    1.2297   -0.0580 N   0  0  0  0  0  0  0  0  0  0  0  0
    0.6289   -0.9022   -0.0593 H   0  0  0  0  0  0  0  0  0  0  0  0
    0.7058    0.6257   -0.9513 H   0  0  0  0  0  0  0  0  0  0  0  0
    0.7056    0.6263    0.8322 H   0  0  0  0  0  0  0  0  0  0  0  0
    2.6995   -2.1072   -0.0606 H   0  0  0  0  0  0  0  0  0  0  0  0
    7.1509   -1.1066   -0.0637 H   0  0  0  0  0  0  0  0  0  0  0  0
    8.5139    0.9615   -0.0622 H   0  0  0  0  0  0  0  0  0  0  0  0
    9.2316    3.1463   -0.0562 H   0  0  0  0  0  0  0  0  0  0  0  0
    8.7244    4.5979    0.8442 H   0  0  0  0  0  0  0  0  0  0  0  0
    8.7204    4.5979   -0.9539 H   0  0  0  0  0  0  0  0  0  0  0  0
    7.0095    6.2357   -0.0981 H   0  0  0  0  0  0  0  0  0  0  0  0
    5.2940    6.2299   -0.0663 H   0  0  0  0  0  0  0  0  0  0  0  0
  1  2  1  0  0  0  0
  1 17  1  0  0  0  0
  1 18  1  0  0  0  0
  1 19  1  0  0  0  0
  2  3  2  0  0  0  0
  2 16  1  0  0  0  0
  3  4  1  0  0  0  0
  3 20  1  0  0  0  0
  4  5  2  0  0  0  0
  5  6  1  0  0  0  0
  5 15  1  0  0  0  0
  6  7  2  0  0  0  0
  6 21  1  0  0  0  0
  7  8  1  0  0  0  0
  7 22  1  0  0  0  0
  8  9  1  0  0  0  0
  8 14  2  0  0  0  0
  9 10  1  0  0  0  0
  9 11  1  0  0  0  0
 10 23  1  0  0  0  0
 10 24  1  0  0  0  0
 10 25  1  0  0  0  0
 11 12  1  0  0  0  0
 11 13  2  0  0  0  0
 12 26  1  0  0  0  0
 12 27  1  0  0  0  0
 13 14  1  0  0  0  0
 14 15  1  0  0  0  0
 15 16  2  0  0  0  0
M  END
$$$$

 OpenBabel12201709243D

  5  4  0  0  0  0  0  0  0  0999 V2000
       nan       nan       nan K   0  0  0  0  0  0  0  0  0  0  0  0
    3.6822   -0.0581    0.0810 O   0  0  0  0  0  0  0  0  0  0  0  0
    4.3022    1.3457   -0.9700 Br  0  0  0  0  0  0  0  0  0  0  0  0
       nan       nan       nan O   0  0  0  0  0  0  0  0  0  0  0  0
       nan       nan       nan O   0  0  0  0  0  0  0  0  0  0  0  0
  1  2  1  0  0  0  0
  2  3  1  0  0  0  0
  3  4  2  0  0  0  0
  3  5  2  0  0  0  0
M  END
$$$$

 OpenBabel12201709243D

  3  2  0  0  0  0  0  0  0  0999 V2000
    1.1380    0.0211   -0.0426 Cl  0  0  0  0  0  0  0  0  0  0  0  0
    3.4931    0.0211   -0.0426 Sn  0  0  0  0  0  0  0  0  0  0  0  0
    4.2781    1.0528   -2.0087 Cl  0  0  0  0  0  0  0  0  0  0  0  0
  1  2  1  0  0  0  0
  2  3  1  0  0  0  0
M  END
$$$$

 OpenBabel12201709243D

  2  1  0  0  0  0  0  0  0  0999 V2000
    0.9793   -0.0819   -0.0456 Cl  0  0  0  0  0  0  0  0  0  0  0  0
    2.9913   -0.0819   -0.0456 Cl  0  0  0  0  0  0  0  0  0  0  0  0
  1  2  1  0  0  0  0
M  END
$$$$

 OpenBabel12201709243D

 33 32  0  0  0  0  0  0  0  0999 V2000
    5.0624   -1.1336    2.5718 O   0  0  0  0  0  0  0  0  0  0  0  0
    4.6242   -0.6700    1.3601 N   0  0  0  0  0  0  0  0  0  0  0  0
    3.9377    0.3267    1.3496 O   0  0  0  0  0  0  0  0  0  0  0  0
    4.9813   -1.3462    0.2055 O   0  0  0  0  0  0  0  0  0  0  0  0
    4.5324   -0.6857   -0.9764 C   0  0  0  0  0  0  0  0  0  0  0  0
    5.0384   -1.4599   -2.2240 C   0  0  0  0  0  0  0  0  0  0  0  0
    4.5606   -2.9312   -2.1523 C   0  0  0  0  0  0  0  0  0  0  0  0
    3.1311   -2.9725   -2.1278 O   0  0  0  0  0  0  0  0  0  0  0  0
    2.6678   -4.2799   -2.0086 N   0  0  0  0  0  0  0  0  0  0  0  0
    3.4148   -5.2329   -1.9645 O   0  0  0  0  0  0  0  0  0  0  0  0
    1.3112   -4.4792   -1.9453 O   0  0  0  0  0  0  0  0  0  0  0  0
    4.4700   -0.8066   -3.5063 C   0  0  0  0  0  0  0  0  0  0  0  0
    4.9005    0.5521   -3.6159 O   0  0  0  0  0  0  0  0  0  0  0  0
    4.3929    1.1423   -4.7745 N   0  0  0  0  0  0  0  0  0  0  0  0
    3.6828    0.5396   -5.5511 O   0  0  0  0  0  0  0  0  0  0  0  0
    4.7108    2.4529   -5.0266 O   0  0  0  0  0  0  0  0  0  0  0  0
    6.5890   -1.4303   -2.2779 C   0  0  0  0  0  0  0  0  0  0  0  0
    7.1355   -2.1091   -1.1483 O   0  0  0  0  0  0  0  0  0  0  0  0
    8.5168   -1.9902   -1.0877 N   0  0  0  0  0  0  0  0  0  0  0  0
    9.1613   -1.4579   -1.9642 O   0  0  0  0  0  0  0  0  0  0  0  0
    9.1542   -2.4945    0.0181 O   0  0  0  0  0  0  0  0  0  0  0  0
    4.6426   -0.4606    3.1278 H   0  0  0  0  0  0  0  0  0  0  0  0
    4.9152    0.3427   -0.9906 H   0  0  0  0  0  0  0  0  0  0  0  0
    3.4358   -0.6484   -0.9722 H   0  0  0  0  0  0  0  0  0  0  0  0
    4.9508   -3.4203   -1.2512 H   0  0  0  0  0  0  0  0  0  0  0  0
    4.9222   -3.4807   -3.0306 H   0  0  0  0  0  0  0  0  0  0  0  0
    1.0200   -3.5591   -2.0126 H   0  0  0  0  0  0  0  0  0  0  0  0
    3.3731   -0.8304   -3.4873 H   0  0  0  0  0  0  0  0  0  0  0  0
    4.8186   -1.3658   -4.3843 H   0  0  0  0  0  0  0  0  0  0  0  0
    5.2651    2.6281   -4.2526 H   0  0  0  0  0  0  0  0  0  0  0  0
    6.9393   -0.3902   -2.2869 H   0  0  0  0  0  0  0  0  0  0  0  0
    6.9390   -1.9282   -3.1907 H   0  0  0  0  0  0  0  0  0  0  0  0
    8.3790   -2.8172    0.5011 H   0  0  0  0  0  0  0  0  0  0  0  0
  1  2  1  0  0  0  0
  1 22  1  0  0  0  0
  2  3  2  0  0  0  0
  2  4  1  0  0  0  0
  4  5  1  0  0  0  0
  5  6  1  0  0  0  0
  5 23  1  0  0  0  0
  5 24  1  0  0  0  0
  6  7  1  0  0  0  0
  6 12  1  0  0  0  0
  6 17  1  0  0  0  0
  7  8  1  0  0  0  0
  7 25  1  0  0  0  0
  7 26  1  0  0  0  0
  8  9  1  0  0  0  0
  9 10  2  0  0  0  0
  9 11  1  0  0  0  0
 11 27  1  0  0  0  0
 12 13  1  0  0  0  0
 12 28  1  0  0  0  0
 12 29  1  0  0  0  0
 13 14  1  0  0  0  0
 14 15  2  0  0  0  0
 14 16  1  0  0  0  0
 16 30  1  0  0  0  0
 17 18  1  0  0  0  0
 17 31  1  0  0  0  0
 17 32  1  0  0  0  0
 18 19  1  0  0  0  0
 19 20  2  0  0  0  0
 19 21  1  0  0  0  0
 21 33  1  0  0  0  0
M  END
$$$$

 OpenBabel12201709243D

 50 50  0  0  1  0  0  0  0  0999 V2000
   10.7853    4.1471    0.5168 C   0  0  0  0  0  0  0  0  0  0  0  0
   10.3696    2.7632    0.0258 C   0  0  0  0  0  0  0  0  0  0  0  0
    9.1932    2.7849   -0.7681 O   0  0  0  0  0  0  0  0  0  0  0  0
    7.7293    2.3400   -0.2183 P   0  0  0  0  0  0  0  0  0  0  0  0
    7.5794    2.0937    1.7163 S   0  0  0  0  0  0  0  0  0  0  0  0
    6.9025    3.6990   -0.6241 O   0  0  0  0  0  0  0  0  0  0  0  0
    7.1622    4.3306   -1.8703 C   0  0  0  0  0  0  0  0  0  0  0  0
    6.0317    5.2808   -2.2220 C   0  0  0  0  0  0  0  0  0  0  0  0
    6.8928    0.8429   -1.4300 S   0  0  0  0  0  0  0  0  0  0  0  0
    7.9570   -0.5240   -1.9726 C   0  0  3  0  0  0  0  0  0  0  0  0
    8.7522   -1.1242   -0.9392 O   0  0  0  0  0  0  0  0  0  0  0  0
    8.0406   -2.0506   -0.1087 C   0  0  0  0  0  0  0  0  0  0  0  0
    7.2706   -3.0833   -0.9173 C   0  0  0  0  0  0  0  0  0  0  0  0
    6.3502   -2.4289   -1.7970 O   0  0  0  0  0  0  0  0  0  0  0  0
    7.0366   -1.5637   -2.7315 C   0  0  3  0  0  0  0  0  0  0  0  0
    7.7796   -2.6134   -4.0216 S   0  0  0  0  0  0  0  0  0  0  0  0
    8.5891   -1.4244   -5.5402 P   0  0  0  0  0  0  0  0  0  0  0  0
    8.2457    0.4923   -5.5803 S   0  0  0  0  0  0  0  0  0  0  0  0
   10.1932   -1.7437   -5.5267 O   0  0  0  0  0  0  0  0  0  0  0  0
   10.5955   -3.1079   -5.5533 C   0  0  0  0  0  0  0  0  0  0  0  0
   12.0953   -3.2162   -5.7262 C   0  0  0  0  0  0  0  0  0  0  0  0
    8.2309   -2.1254   -6.9652 O   0  0  0  0  0  0  0  0  0  0  0  0
    6.8814   -2.3988   -7.2995 C   0  0  0  0  0  0  0  0  0  0  0  0
    6.7953   -2.6874   -8.7858 C   0  0  0  0  0  0  0  0  0  0  0  0
   11.8728    4.1861    0.6576 H   0  0  0  0  0  0  0  0  0  0  0  0
   10.3385    4.3736    1.4914 H   0  0  0  0  0  0  0  0  0  0  0  0
   10.4947    4.9465   -0.1716 H   0  0  0  0  0  0  0  0  0  0  0  0
   10.2918    2.0674    0.8634 H   0  0  0  0  0  0  0  0  0  0  0  0
   11.1599    2.3769   -0.6230 H   0  0  0  0  0  0  0  0  0  0  0  0
    7.2756    3.5867   -2.6613 H   0  0  0  0  0  0  0  0  0  0  0  0
    8.0937    4.8993   -1.7824 H   0  0  0  0  0  0  0  0  0  0  0  0
    5.0813    4.7430   -2.2990 H   0  0  0  0  0  0  0  0  0  0  0  0
    6.2333    5.7822   -3.1748 H   0  0  0  0  0  0  0  0  0  0  0  0
    5.9071    6.0421   -1.4456 H   0  0  0  0  0  0  0  0  0  0  0  0
    8.6710   -0.0896   -2.6730 H   0  0  0  0  0  0  0  0  0  0  0  0
    7.3607   -1.4931    0.5400 H   0  0  0  0  0  0  0  0  0  0  0  0
    8.7746   -2.5596    0.5259 H   0  0  0  0  0  0  0  0  0  0  0  0
    6.7028   -3.7467   -0.2574 H   0  0  0  0  0  0  0  0  0  0  0  0
    7.9569   -3.7206   -1.4869 H   0  0  0  0  0  0  0  0  0  0  0  0
    6.2449   -1.0289   -3.2670 H   0  0  0  0  0  0  0  0  0  0  0  0
   10.0886   -3.6388   -6.3633 H   0  0  0  0  0  0  0  0  0  0  0  0
   10.3274   -3.5791   -4.6031 H   0  0  0  0  0  0  0  0  0  0  0  0
   12.3850   -2.9125   -6.7406 H   0  0  0  0  0  0  0  0  0  0  0  0
   12.4167   -4.2497   -5.5704 H   0  0  0  0  0  0  0  0  0  0  0  0
   12.6217   -2.5660   -5.0253 H   0  0  0  0  0  0  0  0  0  0  0  0
    6.2405   -1.5516   -7.0402 H   0  0  0  0  0  0  0  0  0  0  0  0
    6.5517   -3.2792   -6.7403 H   0  0  0  0  0  0  0  0  0  0  0  0
    7.1984   -1.8539   -9.3701 H   0  0  0  0  0  0  0  0  0  0  0  0
    5.7594   -2.8650   -9.0887 H   0  0  0  0  0  0  0  0  0  0  0  0
    7.3894   -3.5716   -9.0411 H   0  0  0  0  0  0  0  0  0  0  0  0
  1  2  1  0  0  0  0
  1 25  1  0  0  0  0
  1 26  1  0  0  0  0
  1 27  1  0  0  0  0
  2  3  1  0  0  0  0
  2 28  1  0  0  0  0
  2 29  1  0  0  0  0
  3  4  1  0  0  0  0
  4  5  2  0  0  0  0
  4  6  1  0  0  0  0
  4  9  1  0  0  0  0
  6  7  1  0  0  0  0
  7  8  1  0  0  0  0
  7 30  1  0  0  0  0
  7 31  1  0  0  0  0
  8 32  1  0  0  0  0
  8 33  1  0  0  0  0
  8 34  1  0  0  0  0
  9 10  1  0  0  0  0
 10 11  1  0  0  0  0
 10 15  1  0  0  0  0
 10 35  1  0  0  0  0
 11 12  1  0  0  0  0
 12 13  1  0  0  0  0
 12 36  1  0  0  0  0
 12 37  1  0  0  0  0
 13 14  1  0  0  0  0
 13 38  1  0  0  0  0
 13 39  1  0  0  0  0
 14 15  1  0  0  0  0
 15 16  1  0  0  0  0
 15 40  1  0  0  0  0
 16 17  1  0  0  0  0
 17 18  2  0  0  0  0
 17 19  1  0  0  0  0
 17 22  1  0  0  0  0
 19 20  1  0  0  0  0
 20 21  1  0  0  0  0
 20 41  1  0  0  0  0
 20 42  1  0  0  0  0
 21 43  1  0  0  0  0
 21 44  1  0  0  0  0
 21 45  1  0  0  0  0
 22 23  1  0  0  0  0
 23 24  1  0  0  0  0
 23 46  1  0  0  0  0
 23 47  1  0  0  0  0
 24 48  1  0  0  0  0
 24 49  1  0  0  0  0
 24 50  1  0  0  0  0
M  END
$$$$

 OpenBabel12201709243D

 80 79  0  0  1  0  0  0  0  0999 V2000
    0.9694   -0.0883   -0.9132 C   0  0  0  0  0  0  0  0  0  0  0  0
    2.4854    0.0026   -0.8233 C   0  0  0  0  0  0  0  0  0  0  0  0
    2.9184    1.3633   -0.2745 C   0  0  0  0  0  0  0  0  0  0  0  0
    4.4405    1.4758   -0.1811 C   0  0  0  0  0  0  0  0  0  0  0  0
    4.9373    2.8420    0.3539 C   0  0  3  0  0  0  0  0  0  0  0  0
    4.3891    3.2250    1.7319 C   0  0  0  0  0  0  0  0  0  0  0  0
    4.8296    2.3266    2.8772 C   0  0  0  0  0  0  0  0  0  0  0  0
    6.4715    2.8393    0.3153 C   0  0  0  0  0  0  0  0  0  0  0  0
    7.0570    4.0714    0.7593 O   0  0  0  0  0  0  0  0  0  0  0  0
    8.7870    4.0714    0.7593 P   0  0  0  0  0  0  0  0  0  0  0  0
    8.8592    3.2009   -0.5037 O   0  0  0  0  0  0  0  0  0  0  0  0
    8.7328    5.6387    0.2621 O   0  0  0  0  0  0  0  0  0  0  0  0
    8.0675    6.6661    0.9589 C   0  0  0  0  0  0  0  0  0  0  0  0
    8.5882    6.9629    2.3806 C   0  0  3  0  0  0  0  0  0  0  0  0
   10.0589    7.4325    2.3687 C   0  0  0  0  0  0  0  0  0  0  0  0
   10.6809    7.7241    3.7277 C   0  0  0  0  0  0  0  0  0  0  0  0
    7.6874    8.0340    3.0345 C   0  0  0  0  0  0  0  0  0  0  0  0
    6.2051    7.6668    3.1521 C   0  0  0  0  0  0  0  0  0  0  0  0
    5.9855    6.3943    3.9632 C   0  0  0  0  0  0  0  0  0  0  0  0
    4.5041    6.0899    4.1093 C   0  0  0  0  0  0  0  0  0  0  0  0
   10.5170    4.0714    0.7593 O   0  0  0  0  0  0  0  0  0  0  0  0
   11.1191    5.0045   -0.1535 C   0  0  0  0  0  0  0  0  0  0  0  0
   12.6413    5.0691   -0.0537 C   0  0  3  0  0  0  0  0  0  0  0  0
   13.2542    3.7928   -0.6583 C   0  0  0  0  0  0  0  0  0  0  0  0
   12.9373    3.5555   -2.1334 C   0  0  0  0  0  0  0  0  0  0  0  0
   13.1893    6.3739   -0.7078 C   0  0  0  0  0  0  0  0  0  0  0  0
   12.7361    7.6641    0.0093 C   0  0  0  0  0  0  0  0  0  0  0  0
   13.2622    8.9467   -0.6365 C   0  0  0  0  0  0  0  0  0  0  0  0
   12.7228   10.1790    0.0831 C   0  0  0  0  0  0  0  0  0  0  0  0
    0.6666   -1.0762   -1.2744 H   0  0  0  0  0  0  0  0  0  0  0  0
    0.5749    0.6637   -1.6039 H   0  0  0  0  0  0  0  0  0  0  0  0
    0.5095    0.0715    0.0671 H   0  0  0  0  0  0  0  0  0  0  0  0
    2.9190   -0.1618   -1.8166 H   0  0  0  0  0  0  0  0  0  0  0  0
    2.8567   -0.7969   -0.1700 H   0  0  0  0  0  0  0  0  0  0  0  0
    2.4682    1.4938    0.7151 H   0  0  0  0  0  0  0  0  0  0  0  0
    2.5331    2.1611   -0.9201 H   0  0  0  0  0  0  0  0  0  0  0  0
    4.8591    1.3165   -1.1837 H   0  0  0  0  0  0  0  0  0  0  0  0
    4.8308    0.6612    0.4409 H   0  0  0  0  0  0  0  0  0  0  0  0
    4.5953    3.6193   -0.3436 H   0  0  0  0  0  0  0  0  0  0  0  0
    3.2949    3.2576    1.6994 H   0  0  0  0  0  0  0  0  0  0  0  0
    4.7063    4.2476    1.9522 H   0  0  0  0  0  0  0  0  0  0  0  0
    4.7354    1.2658    2.6323 H   0  0  0  0  0  0  0  0  0  0  0  0
    4.2122    2.5210    3.7601 H   0  0  0  0  0  0  0  0  0  0  0  0
    5.8699    2.5282    3.1515 H   0  0  0  0  0  0  0  0  0  0  0  0
    6.7435    2.6693   -0.7324 H   0  0  0  0  0  0  0  0  0  0  0  0
    6.8793    2.0226    0.9197 H   0  0  0  0  0  0  0  0  0  0  0  0
    7.0023    6.4296    0.9547 H   0  0  0  0  0  0  0  0  0  0  0  0
    8.1741    7.5693    0.3443 H   0  0  0  0  0  0  0  0  0  0  0  0
    8.5598    6.0350    2.9633 H   0  0  0  0  0  0  0  0  0  0  0  0
   10.1602    8.3208    1.7340 H   0  0  0  0  0  0  0  0  0  0  0  0
   10.6752    6.6457    1.9406 H   0  0  0  0  0  0  0  0  0  0  0  0
   10.1499    8.5050    4.2762 H   0  0  0  0  0  0  0  0  0  0  0  0
   11.7115    8.0697    3.5916 H   0  0  0  0  0  0  0  0  0  0  0  0
   10.7122    6.8178    4.3412 H   0  0  0  0  0  0  0  0  0  0  0  0
    7.7661    8.9658    2.4550 H   0  0  0  0  0  0  0  0  0  0  0  0
    8.0426    8.2624    4.0434 H   0  0  0  0  0  0  0  0  0  0  0  0
    5.7479    7.5708    2.1628 H   0  0  0  0  0  0  0  0  0  0  0  0
    5.6869    8.5047    3.6371 H   0  0  0  0  0  0  0  0  0  0  0  0
    6.4328    6.5066    4.9573 H   0  0  0  0  0  0  0  0  0  0  0  0
    6.4712    5.5383    3.4835 H   0  0  0  0  0  0  0  0  0  0  0  0
    3.9906    6.8876    4.6462 H   0  0  0  0  0  0  0  0  0  0  0  0
    4.3667    5.1550    4.6600 H   0  0  0  0  0  0  0  0  0  0  0  0
    4.0309    5.9823    3.1275 H   0  0  0  0  0  0  0  0  0  0  0  0
   10.7661    5.9979    0.0950 H   0  0  0  0  0  0  0  0  0  0  0  0
   10.7655    4.8172   -1.1663 H   0  0  0  0  0  0  0  0  0  0  0  0
   12.9196    5.0837    1.0093 H   0  0  0  0  0  0  0  0  0  0  0  0
   12.8951    2.9284   -0.0858 H   0  0  0  0  0  0  0  0  0  0  0  0
   14.3420    3.8187   -0.5333 H   0  0  0  0  0  0  0  0  0  0  0  0
   11.8600    3.5487   -2.3356 H   0  0  0  0  0  0  0  0  0  0  0  0
   13.3168    2.5817   -2.4423 H   0  0  0  0  0  0  0  0  0  0  0  0
   13.3965    4.3196   -2.7644 H   0  0  0  0  0  0  0  0  0  0  0  0
   12.8687    6.4259   -1.7537 H   0  0  0  0  0  0  0  0  0  0  0  0
   14.2849    6.3424   -0.7050 H   0  0  0  0  0  0  0  0  0  0  0  0
   13.0434    7.6276    1.0612 H   0  0  0  0  0  0  0  0  0  0  0  0
   11.6472    7.7429   -0.0106 H   0  0  0  0  0  0  0  0  0  0  0  0
   12.9495    8.9867   -1.6864 H   0  0  0  0  0  0  0  0  0  0  0  0
   14.3574    8.9613   -0.6156 H   0  0  0  0  0  0  0  0  0  0  0  0
   11.6270   10.2001    0.0646 H   0  0  0  0  0  0  0  0  0  0  0  0
   13.0830   11.0938   -0.3982 H   0  0  0  0  0  0  0  0  0  0  0  0
   13.0430   10.1966    1.1301 H   0  0  0  0  0  0  0  0  0  0  0  0
  1  2  1  0  0  0  0
  1 30  1  0  0  0  0
  1 31  1  0  0  0  0
  1 32  1  0  0  0  0
  2  3  1  0  0  0  0
  2 33  1  0  0  0  0
  2 34  1  0  0  0  0
  3  4  1  0  0  0  0
  3 35  1  0  0  0  0
  3 36  1  0  0  0  0
  4  5  1  0  0  0  0
  4 37  1  0  0  0  0
  4 38  1  0  0  0  0
  5  6  1  0  0  0  0
  5  8  1  0  0  0  0
  5 39  1  0  0  0  0
  6  7  1  0  0  0  0
  6 40  1  0  0  0  0
  6 41  1  0  0  0  0
  7 42  1  0  0  0  0
  7 43  1  0  0  0  0
  7 44  1  0  0  0  0
  8  9  1  0  0  0  0
  8 45  1  0  0  0  0
  8 46  1  0  0  0  0
  9 10  1  0  0  0  0
 10 11  2  0  0  0  0
 10 12  1  0  0  0  0
 10 21  1  0  0  0  0
 12 13  1  0  0  0  0
 13 14  1  0  0  0  0
 13 47  1  0  0  0  0
 13 48  1  0  0  0  0
 14 15  1  0  0  0  0
 14 17  1  0  0  0  0
 14 49  1  0  0  0  0
 15 16  1  0  0  0  0
 15 50  1  0  0  0  0
 15 51  1  0  0  0  0
 16 52  1  0  0  0  0
 16 53  1  0  0  0  0
 16 54  1  0  0  0  0
 17 18  1  0  0  0  0
 17 55  1  0  0  0  0
 17 56  1  0  0  0  0
 18 19  1  0  0  0  0
 18 57  1  0  0  0  0
 18 58  1  0  0  0  0
 19 20  1  0  0  0  0
 19 59  1  0  0  0  0
 19 60  1  0  0  0  0
 20 61  1  0  0  0  0
 20 62  1  0  0  0  0
 20 63  1  0  0  0  0
 21 22  1  0  0  0  0
 22 23  1  0  0  0  0
 22 64  1  0  0  0  0
 22 65  1  0  0  0  0
 23 24  1  0  0  0  0
 23 26  1  0  0  0  0
 23 66  1  0  0  0  0
 24 25  1  0  0  0  0
 24 67  1  0  0  0  0
 24 68  1  0  0  0  0
 25 69  1  0  0  0  0
 25 70  1  0  0  0  0
 25 71  1  0  0  0  0
 26 27  1  0  0  0  0
 26 72  1  0  0  0  0
 26 73  1  0  0  0  0
 27 28  1  0  0  0  0
 27 74  1  0  0  0  0
 27 75  1  0  0  0  0
 28 29  1  0  0  0  0
 28 76  1  0  0  0  0
 28 77  1  0  0  0  0
 29 78  1  0  0  0  0
 29 79  1  0  0  0  0
 29 80  1  0  0  0  0
M  END
$$$$

 OpenBabel12201709243D

 24 24  0  0  0  0  0  0  0  0999 V2000
    0.9343    0.0602   -0.0863 C   0  0  0  0  0  0  0  0  0  0  0  0
    2.4381    0.1197   -0.0888 C   0  0  0  0  0  0  0  0  0  0  0  0
    3.0732    1.2960   -0.0940 C   0  0  0  0  0  0  0  0  0  0  0  0
    4.5372    1.3931   -0.0808 C   0  0  0  0  0  0  0  0  0  0  0  0
    5.0506    2.5134   -0.0615 O   0  0  0  0  0  0  0  0  0  0  0  0
    5.3882    0.1493   -0.0792 C   0  0  0  0  0  0  0  0  0  0  0  0
    4.6855   -1.2282   -0.1344 C   0  0  0  0  0  0  0  0  0  0  0  0
    5.1118   -1.9445   -1.4377 C   0  0  0  0  0  0  0  0  0  0  0  0
    5.2083   -2.0847    1.0430 C   0  0  0  0  0  0  0  0  0  0  0  0
    3.1335   -1.2098   -0.0668 C   0  0  0  0  0  0  0  0  0  0  0  0
    0.4803    1.0568   -0.0821 H   0  0  0  0  0  0  0  0  0  0  0  0
    0.5768   -0.4708    0.8024 H   0  0  0  0  0  0  0  0  0  0  0  0
    0.5731   -0.4664   -0.9755 H   0  0  0  0  0  0  0  0  0  0  0  0
    2.5452    2.2441   -0.0976 H   0  0  0  0  0  0  0  0  0  0  0  0
    6.0121    0.2195    0.8213 H   0  0  0  0  0  0  0  0  0  0  0  0
    6.0702    0.2564   -0.9332 H   0  0  0  0  0  0  0  0  0  0  0  0
    6.2024   -2.0346   -1.5042 H   0  0  0  0  0  0  0  0  0  0  0  0
    4.7646   -1.3952   -2.3198 H   0  0  0  0  0  0  0  0  0  0  0  0
    4.6988   -2.9588   -1.4883 H   0  0  0  0  0  0  0  0  0  0  0  0
    6.3006   -2.1721    1.0188 H   0  0  0  0  0  0  0  0  0  0  0  0
    4.7945   -3.0993    1.0133 H   0  0  0  0  0  0  0  0  0  0  0  0
    4.9299   -1.6375    2.0043 H   0  0  0  0  0  0  0  0  0  0  0  0
    2.7984   -1.7290    0.8415 H   0  0  0  0  0  0  0  0  0  0  0  0
    2.7277   -1.8021   -0.8988 H   0  0  0  0  0  0  0  0  0  0  0  0
  1  2  1  0  0  0  0
  1 11  1  0  0  0  0
  1 12  1  0  0  0  0
  1 13  1  0  0  0  0
  2  3  2  0  0  0  0
  2 10  1  0  0  0  0
  3  4  1  0  0  0  0
  3 14  1  0  0  0  0
  4  5  2  0  0  0  0
  4  6  1  0  0  0  0
  6  7  1  0  0  0  0
  6 15  1  0  0  0  0
  6 16  1  0  0  0  0
  7  8  1  0  0  0  0
  7  9  1  0  0  0  0
  7 10  1  0  0  0  0
  8 17  1  0  0  0  0
  8 18  1  0  0  0  0
  8 19  1  0  0  0  0
  9 20  1  0  0  0  0
  9 21  1  0  0  0  0
  9 22  1  0  0  0  0
 10 23  1  0  0  0  0
 10 24  1  0  0  0  0
M  END
$$$$

 OpenBabel12201709243D

 11 10  0  0  1  0  0  0  0  0999 V2000
    0.9954    0.0204   -0.1021 C   0  0  0  0  0  0  0  0  0  0  0  0
    2.5192   -0.0318   -0.0854 C   0  0  3  0  0  0  0  0  0  0  0  0
    3.1062    0.8656    1.3551 Cl  0  0  0  0  0  0  0  0  0  0  0  0
    3.0775   -1.4531   -0.0404 C   0  0  0  0  0  0  0  0  0  0  0  0
    2.6810   -2.3738   -1.5157 Cl  0  0  0  0  0  0  0  0  0  0  0  0
    0.6397    1.0566   -0.0837 H   0  0  0  0  0  0  0  0  0  0  0  0
    0.5675   -0.4988    0.7625 H   0  0  0  0  0  0  0  0  0  0  0  0
    0.5900   -0.4429   -1.0070 H   0  0  0  0  0  0  0  0  0  0  0  0
    2.9129    0.5005   -0.9579 H   0  0  0  0  0  0  0  0  0  0  0  0
    2.6804   -2.0138    0.8121 H   0  0  0  0  0  0  0  0  0  0  0  0
    4.1695   -1.4420    0.0380 H   0  0  0  0  0  0  0  0  0  0  0  0
  1  2  1  0  0  0  0
  1  6  1  0  0  0  0
  1  7  1  0  0  0  0
  1  8  1  0  0  0  0
  2  3  1  0  0  0  0
  2  4  1  0  0  0  0
  2  9  1  0  0  0  0
  4  5  1  0  0  0  0
  4 10  1  0  0  0  0
  4 11  1  0  0  0  0
M  END
$$$$

 OpenBabel12201709243D

  8  7  0  0  0  0  0  0  0  0999 V2000
    0.9197    0.0792    0.1354 Cl  0  0  0  0  0  0  0  0  0  0  0  0
    2.6877   -0.0635   -0.0779 C   0  0  0  0  0  0  0  0  0  0  0  0
    3.1967   -1.4603    0.2622 C   0  0  0  0  0  0  0  0  0  0  0  0
    2.6078   -2.6847   -0.8957 Cl  0  0  0  0  0  0  0  0  0  0  0  0
    4.9843   -1.4715    0.2455 Cl  0  0  0  0  0  0  0  0  0  0  0  0
    3.1368    0.6843    0.5837 H   0  0  0  0  0  0  0  0  0  0  0  0
    2.9198    0.2150   -1.1112 H   0  0  0  0  0  0  0  0  0  0  0  0
    2.8804   -1.7671    1.2636 H   0  0  0  0  0  0  0  0  0  0  0  0
  1  2  1  0  0  0  0
  2  3  1  0  0  0  0
  2  6  1  0  0  0  0
  2  7  1  0  0  0  0
  3  4  1  0  0  0  0
  3  5  1  0  0  0  0
  3  8  1  0  0  0  0
M  END
$$$$

 OpenBabel12201709243D

  6  5  0  0  0  0  0  0  0  0999 V2000
    1.1319    0.0532    0.0354 Cl  0  0  0  0  0  0  0  0  0  0  0  0
    2.8386   -0.0721   -0.0728 C   0  0  0  0  0  0  0  0  0  0  0  0
    3.5128   -0.9446   -0.8262 C   0  0  0  0  0  0  0  0  0  0  0  0
    2.7491   -2.1159   -1.8377 Cl  0  0  0  0  0  0  0  0  0  0  0  0
    5.2433   -0.9248   -0.8091 Cl  0  0  0  0  0  0  0  0  0  0  0  0
    3.3236    0.6604    0.5598 H   0  0  0  0  0  0  0  0  0  0  0  0
  1  2  1  0  0  0  0
  2  3  2  0  0  0  0
  2  6  1  0  0  0  0
  3  4  1  0  0  0  0
  3  5  1  0  0  0  0
M  END
$$$$

 OpenBabel12201709243D

 10  9  0  0  0  0  0  0  0  0999 V2000
    1.1723   -0.0425    0.0621 N   0  0  0  0  0  0  0  0  0  0  0  0
    2.5269    0.0445    0.1248 C   0  0  0  0  0  0  0  0  0  0  0  0
    3.0922    0.9255    0.7554 O   0  0  0  0  0  0  0  0  0  0  0  0
    3.2291   -1.0155   -0.6334 C   0  0  0  0  0  0  0  0  0  0  0  0
    4.5672   -1.0545   -0.6596 C   0  0  0  0  0  0  0  0  0  0  0  0
    0.6413    0.6576    0.5630 H   0  0  0  0  0  0  0  0  0  0  0  0
    0.6737   -0.7556   -0.4479 H   0  0  0  0  0  0  0  0  0  0  0  0
    2.6411   -1.7534   -1.1627 H   0  0  0  0  0  0  0  0  0  0  0  0
    5.1659   -0.3171   -0.1307 H   0  0  0  0  0  0  0  0  0  0  0  0
    5.0925   -1.8261   -1.2114 H   0  0  0  0  0  0  0  0  0  0  0  0
  1  2  1  0  0  0  0
  1  6  1  0  0  0  0
  1  7  1  0  0  0  0
  2  3  2  0  0  0  0
  2  4  1  0  0  0  0
  4  5  2  0  0  0  0
  4  8  1  0  0  0  0
  5  9  1  0  0  0  0
  5 10  1  0  0  0  0
M  END
$$$$

 OpenBabel12201709243D

  8  7  0  0  0  0  0  0  0  0999 V2000
    1.0182    0.0741   -0.0553 O   0  0  0  0  0  0  0  0  0  0  0  0
    2.3694    0.1188   -0.0128 C   0  0  0  0  0  0  0  0  0  0  0  0
    2.9616    0.8958    0.7255 O   0  0  0  0  0  0  0  0  0  0  0  0
    3.0900   -0.8438   -0.9279 C   0  0  0  0  0  0  0  0  0  0  0  0
    1.9503   -1.8384   -1.8704 Cl  0  0  0  0  0  0  0  0  0  0  0  0
    0.6954   -0.5978   -0.6936 H   0  0  0  0  0  0  0  0  0  0  0  0
    3.7056   -1.5193   -0.3297 H   0  0  0  0  0  0  0  0  0  0  0  0
    3.7036   -0.2804   -1.6345 H   0  0  0  0  0  0  0  0  0  0  0  0
  1  2  1  0  0  0  0
  1  6  1  0  0  0  0
  2  3  2  0  0  0  0
  2  4  1  0  0  0  0
  4  5  1  0  0  0  0
  4  7  1  0  0  0  0
  4  8  1  0  0  0  0
M  END
$$$$

 OpenBabel12201709243D

  8  7  0  0  0  0  0  0  0  0999 V2000
    0.8796    0.0060   -0.0416 Cl  0  0  0  0  0  0  0  0  0  0  0  0
    2.6747   -0.0035    0.0175 C   0  0  0  0  0  0  0  0  0  0  0  0
    3.2373    1.4009   -0.9506 Cl  0  0  0  0  0  0  0  0  0  0  0  0
    3.1994    0.0499    1.4602 C   0  0  0  0  0  0  0  0  0  0  0  0
    2.6367   -1.3545    2.4284 Cl  0  0  0  0  0  0  0  0  0  0  0  0
    4.9945    0.0403    1.5193 Cl  0  0  0  0  0  0  0  0  0  0  0  0
    3.0109   -0.9082   -0.4988 H   0  0  0  0  0  0  0  0  0  0  0  0
    2.8633    0.9545    1.9765 H   0  0  0  0  0  0  0  0  0  0  0  0
  1  2  1  0  0  0  0
  2  3  1  0  0  0  0
  2  4  1  0  0  0  0
  2  7  1  0  0  0  0
  4  5  1  0  0  0  0
  4  6  1  0  0  0  0
  4  8  1  0  0  0  0
M  END
$$$$

 OpenBabel12201709243D

 12 11  0  0  0  0  0  0  0  0999 V2000
    1.1270   -0.0309   -0.0217 C   0  0  0  0  0  0  0  0  0  0  0  0
    2.5776   -0.0263   -0.0162 N   0  0  0  0  0  0  0  0  0  0  0  0
    3.2857   -0.7811   -1.0353 C   0  0  0  0  0  0  0  0  0  0  0  0
    3.2249    0.7114    0.9799 C   0  0  0  0  0  0  0  0  0  0  0  0
    2.5731    1.3327    1.8194 O   0  0  0  0  0  0  0  0  0  0  0  0
    4.9728    0.6972    0.9595 Cl  0  0  0  0  0  0  0  0  0  0  0  0
    0.7317   -0.6372   -0.8405 H   0  0  0  0  0  0  0  0  0  0  0  0
    0.7676    0.9974   -0.1279 H   0  0  0  0  0  0  0  0  0  0  0  0
    0.7681   -0.4327    0.9309 H   0  0  0  0  0  0  0  0  0  0  0  0
    2.5891   -1.2825   -1.7122 H   0  0  0  0  0  0  0  0  0  0  0  0
    3.9155   -1.5340   -0.5524 H   0  0  0  0  0  0  0  0  0  0  0  0
    3.9153   -0.0995   -1.6149 H   0  0  0  0  0  0  0  0  0  0  0  0
  1  2  1  0  0  0  0
  1  7  1  0  0  0  0
  1  8  1  0  0  0  0
  1  9  1  0  0  0  0
  2  3  1  0  0  0  0
  2  4  1  0  0  0  0
  3 10  1  0  0  0  0
  3 11  1  0  0  0  0
  3 12  1  0  0  0  0
  4  5  2  0  0  0  0
  4  6  1  0  0  0  0
M  END
$$$$

 OpenBabel12201709243D

 14 13  0  0  0  0  0  0  0  0999 V2000
    0.9628    0.0200   -0.0796 C   0  0  0  0  0  0  0  0  0  0  0  0
    2.4807    0.0896   -0.0493 C   0  0  0  0  0  0  0  0  0  0  0  0
    3.0078    1.4525    0.3694 C   0  0  0  0  0  0  0  0  0  0  0  0
    2.9600   -0.9039    0.9419 N   0  0  0  0  0  0  0  0  0  0  0  0
    2.6301   -0.8168    2.1086 O   0  0  0  0  0  0  0  0  0  0  0  0
    3.7927   -1.9572    0.5805 O   0  0  0  0  0  0  0  0  0  0  0  0
    0.5611    0.7148   -0.8246 H   0  0  0  0  0  0  0  0  0  0  0  0
    0.5228    0.2773    0.8903 H   0  0  0  0  0  0  0  0  0  0  0  0
    0.6238   -0.9885   -0.3401 H   0  0  0  0  0  0  0  0  0  0  0  0
    2.8861   -0.1829   -1.0288 H   0  0  0  0  0  0  0  0  0  0  0  0
    2.6486    1.7418    1.3634 H   0  0  0  0  0  0  0  0  0  0  0  0
    2.6887    2.2229   -0.3397 H   0  0  0  0  0  0  0  0  0  0  0  0
    4.1028    1.4533    0.4003 H   0  0  0  0  0  0  0  0  0  0  0  0
    3.9140   -1.8200   -0.3687 H   0  0  0  0  0  0  0  0  0  0  0  0
  1  2  1  0  0  0  0
  1  7  1  0  0  0  0
  1  8  1  0  0  0  0
  1  9  1  0  0  0  0
  2  3  1  0  0  0  0
  2  4  1  0  0  0  0
  2 10  1  0  0  0  0
  3 11  1  0  0  0  0
  3 12  1  0  0  0  0
  3 13  1  0  0  0  0
  4  5  2  0  0  0  0
  4  6  1  0  0  0  0
  6 14  1  0  0  0  0
M  END
$$$$

 OpenBabel12201709243D

 98 98  0  0  0  0  0  0  0  0999 V2000
    1.2919    0.0047   14.8245 C   0  0  0  0  0  0  0  0  0  0  0  0
    2.8099   -0.0064   14.7537 C   0  0  0  0  0  0  0  0  0  0  0  0
    3.3075   -1.0122   13.7190 C   0  0  0  0  0  0  0  0  0  0  0  0
    4.8325   -1.0233   13.6481 C   0  0  0  0  0  0  0  0  0  0  0  0
    5.3227   -2.0323   12.6130 C   0  0  0  0  0  0  0  0  0  0  0  0
    6.8471   -2.0444   12.5414 C   0  0  0  0  0  0  0  0  0  0  0  0
    7.3332   -3.0535   11.5055 C   0  0  0  0  0  0  0  0  0  0  0  0
    8.8565   -3.0685   11.4337 C   0  0  0  0  0  0  0  0  0  0  0  0
    9.3385   -4.0775   10.3966 C   0  0  0  0  0  0  0  0  0  0  0  0
   10.8611   -4.0952   10.3246 C   0  0  0  0  0  0  0  0  0  0  0  0
   11.3425   -5.1047    9.2879 C   0  0  0  0  0  0  0  0  0  0  0  0
   12.8655   -5.1212    9.2201 C   0  0  0  0  0  0  0  0  0  0  0  0
   13.3549   -6.1325    8.1892 C   0  0  0  0  0  0  0  0  0  0  0  0
   14.8777   -6.1439    8.1299 C   0  0  0  0  0  0  0  0  0  0  0  0
   15.3731   -7.1507    7.1065 C   0  0  0  0  0  0  0  0  0  0  0  0
   16.8703   -7.0949    7.0135 C   0  0  0  0  0  0  0  0  0  0  0  0
   17.4720   -6.4436    6.1719 O   0  0  0  0  0  0  0  0  0  0  0  0
   17.4306   -7.8542    7.9928 O   0  0  0  0  0  0  0  0  0  0  0  0
   18.8549   -7.9770    7.9368 C   0  0  0  0  0  0  0  0  0  0  0  0
   19.4436   -7.6363    9.2761 C   0  0  0  0  0  0  0  0  0  0  0  0
   20.7712   -7.5417    9.5078 C   0  0  0  0  0  0  0  0  0  0  0  0
   21.7911   -7.8145    8.4202 C   0  0  0  0  0  0  0  0  0  0  0  0
   21.2756   -7.1680   10.8330 C   0  0  0  0  0  0  0  0  0  0  0  0
   22.5832   -7.0600   11.1298 C   0  0  0  0  0  0  0  0  0  0  0  0
   23.1461   -6.6830   12.4090 C   0  0  0  0  0  0  0  0  0  0  0  0
   24.4689   -6.6025   12.6865 C   0  0  0  0  0  0  0  0  0  0  0  0
   25.5725   -6.9082   11.6962 C   0  0  0  0  0  0  0  0  0  0  0  0
   24.8968   -6.1945   14.0308 C   0  0  0  0  0  0  0  0  0  0  0  0
   26.1702   -5.9982   14.4169 C   0  0  0  0  0  0  0  0  0  0  0  0
   26.6015   -5.5910   15.7590 C   0  0  0  0  0  0  0  0  0  0  0  0
   26.2114   -4.4149   16.2935 C   0  0  0  0  0  0  0  0  0  0  0  0
   25.3546   -3.3787   15.5950 C   0  0  0  0  0  0  0  0  0  0  0  0
   26.6301   -3.9516   17.6590 C   0  0  0  0  0  0  0  0  0  0  0  0
   27.4659   -4.8819   18.5181 C   0  0  0  0  0  0  0  0  0  0  0  0
   27.9103   -6.2130   17.9344 C   0  0  0  0  0  0  0  0  0  0  0  0
   27.5883   -6.5503   16.4509 C   0  0  0  0  0  0  0  0  0  0  0  0
   28.9338   -6.5609   15.6787 C   0  0  0  0  0  0  0  0  0  0  0  0
   27.0302   -7.9975   16.4414 C   0  0  0  0  0  0  0  0  0  0  0  0
    0.9518    0.7296   15.5697 H   0  0  0  0  0  0  0  0  0  0  0  0
    0.9068   -0.9804   15.1061 H   0  0  0  0  0  0  0  0  0  0  0  0
    0.8578    0.2795   13.8580 H   0  0  0  0  0  0  0  0  0  0  0  0
    3.2165   -0.2552   15.7413 H   0  0  0  0  0  0  0  0  0  0  0  0
    3.1677    0.9986   14.4991 H   0  0  0  0  0  0  0  0  0  0  0  0
    2.8956   -0.7620   12.7335 H   0  0  0  0  0  0  0  0  0  0  0  0
    2.9441   -2.0150   13.9752 H   0  0  0  0  0  0  0  0  0  0  0  0
    5.2466   -1.2746   14.6321 H   0  0  0  0  0  0  0  0  0  0  0  0
    5.1980   -0.0224   13.3887 H   0  0  0  0  0  0  0  0  0  0  0  0
    4.9100   -1.7820   11.6280 H   0  0  0  0  0  0  0  0  0  0  0  0
    4.9584   -3.0340   12.8712 H   0  0  0  0  0  0  0  0  0  0  0  0
    7.2618   -2.2966   13.5248 H   0  0  0  0  0  0  0  0  0  0  0  0
    7.2136   -1.0440   12.2819 H   0  0  0  0  0  0  0  0  0  0  0  0
    6.9200   -2.8013   10.5212 H   0  0  0  0  0  0  0  0  0  0  0  0
    6.9663   -4.0546   11.7637 H   0  0  0  0  0  0  0  0  0  0  0  0
    9.2710   -3.3224   12.4170 H   0  0  0  0  0  0  0  0  0  0  0  0
    9.2250   -2.0682   11.1754 H   0  0  0  0  0  0  0  0  0  0  0  0
    8.9250   -3.8230    9.4130 H   0  0  0  0  0  0  0  0  0  0  0  0
    8.9691   -5.0777   10.6543 H   0  0  0  0  0  0  0  0  0  0  0  0
   11.2746   -4.3496   11.3082 H   0  0  0  0  0  0  0  0  0  0  0  0
   11.2309   -3.0953   10.0668 H   0  0  0  0  0  0  0  0  0  0  0  0
   10.9307   -4.8499    8.3037 H   0  0  0  0  0  0  0  0  0  0  0  0
   10.9724   -6.1046    9.5452 H   0  0  0  0  0  0  0  0  0  0  0  0
   13.2761   -5.3712   10.2060 H   0  0  0  0  0  0  0  0  0  0  0  0
   13.2340   -4.1213    8.9603 H   0  0  0  0  0  0  0  0  0  0  0  0
   12.9474   -5.8812    7.2022 H   0  0  0  0  0  0  0  0  0  0  0  0
   12.9863   -7.1329    8.4468 H   0  0  0  0  0  0  0  0  0  0  0  0
   15.2877   -6.3858    9.1185 H   0  0  0  0  0  0  0  0  0  0  0  0
   15.2479   -5.1428    7.8752 H   0  0  0  0  0  0  0  0  0  0  0  0
   14.9661   -6.9360    6.1118 H   0  0  0  0  0  0  0  0  0  0  0  0
   15.0629   -8.1717    7.3576 H   0  0  0  0  0  0  0  0  0  0  0  0
   19.2940   -7.3388    7.1636 H   0  0  0  0  0  0  0  0  0  0  0  0
   19.0729   -9.0221    7.6956 H   0  0  0  0  0  0  0  0  0  0  0  0
   18.7362   -7.4468   10.0776 H   0  0  0  0  0  0  0  0  0  0  0  0
   21.3494   -8.0998    7.4621 H   0  0  0  0  0  0  0  0  0  0  0  0
   22.4487   -8.6425    8.7099 H   0  0  0  0  0  0  0  0  0  0  0  0
   22.3981   -6.9218    8.2314 H   0  0  0  0  0  0  0  0  0  0  0  0
   20.5320   -6.9609   11.6022 H   0  0  0  0  0  0  0  0  0  0  0  0
   23.2974   -7.2665   10.3457 H   0  0  0  0  0  0  0  0  0  0  0  0
   22.4199   -6.4429   13.1846 H   0  0  0  0  0  0  0  0  0  0  0  0
   25.2294   -7.2083   10.7053 H   0  0  0  0  0  0  0  0  0  0  0  0
   26.1941   -7.7338   12.0636 H   0  0  0  0  0  0  0  0  0  0  0  0
   26.2064   -6.0278   11.5403 H   0  0  0  0  0  0  0  0  0  0  0  0
   24.1049   -6.0258   14.7607 H   0  0  0  0  0  0  0  0  0  0  0  0
   26.9848   -6.1655   13.7197 H   0  0  0  0  0  0  0  0  0  0  0  0
   25.1560   -3.5967   14.5421 H   0  0  0  0  0  0  0  0  0  0  0  0
   25.8608   -2.4072   15.6102 H   0  0  0  0  0  0  0  0  0  0  0  0
   24.3945   -3.2769   16.1067 H   0  0  0  0  0  0  0  0  0  0  0  0
   25.7223   -3.7010   18.2261 H   0  0  0  0  0  0  0  0  0  0  0  0
   27.1796   -3.0088   17.5483 H   0  0  0  0  0  0  0  0  0  0  0  0
   26.9082   -5.0872   19.4424 H   0  0  0  0  0  0  0  0  0  0  0  0
   28.3533   -4.3324   18.8600 H   0  0  0  0  0  0  0  0  0  0  0  0
   27.4983   -6.9950   18.5904 H   0  0  0  0  0  0  0  0  0  0  0  0
   28.9931   -6.2919   18.1043 H   0  0  0  0  0  0  0  0  0  0  0  0
   29.3848   -5.5621   15.6572 H   0  0  0  0  0  0  0  0  0  0  0  0
   28.8225   -6.9017   14.6442 H   0  0  0  0  0  0  0  0  0  0  0  0
   29.6535   -7.2437   16.1471 H   0  0  0  0  0  0  0  0  0  0  0  0
   26.0435   -8.0408   16.9176 H   0  0  0  0  0  0  0  0  0  0  0  0
   27.6934   -8.6797   16.9888 H   0  0  0  0  0  0  0  0  0  0  0  0
   26.9332   -8.4018   15.4271 H   0  0  0  0  0  0  0  0  0  0  0  0
  1  2  1  0  0  0  0
  1 39  1  0  0  0  0
  1 40  1  0  0  0  0
  1 41  1  0  0  0  0
  2  3  1  0  0  0  0
  2 42  1  0  0  0  0
  2 43  1  0  0  0  0
  3  4  1  0  0  0  0
  3 44  1  0  0  0  0
  3 45  1  0  0  0  0
  4  5  1  0  0  0  0
  4 46  1  0  0  0  0
  4 47  1  0  0  0  0
  5  6  1  0  0  0  0
  5 48  1  0  0  0  0
  5 49  1  0  0  0  0
  6  7  1  0  0  0  0
  6 50  1  0  0  0  0
  6 51  1  0  0  0  0
  7  8  1  0  0  0  0
  7 52  1  0  0  0  0
  7 53  1  0  0  0  0
  8  9  1  0  0  0  0
  8 54  1  0  0  0  0
  8 55  1  0  0  0  0
  9 10  1  0  0  0  0
  9 56  1  0  0  0  0
  9 57  1  0  0  0  0
 10 11  1  0  0  0  0
 10 58  1  0  0  0  0
 10 59  1  0  0  0  0
 11 12  1  0  0  0  0
 11 60  1  0  0  0  0
 11 61  1  0  0  0  0
 12 13  1  0  0  0  0
 12 62  1  0  0  0  0
 12 63  1  0  0  0  0
 13 14  1  0  0  0  0
 13 64  1  0  0  0  0
 13 65  1  0  0  0  0
 14 15  1  0  0  0  0
 14 66  1  0  0  0  0
 14 67  1  0  0  0  0
 15 16  1  0  0  0  0
 15 68  1  0  0  0  0
 15 69  1  0  0  0  0
 16 17  2  0  0  0  0
 16 18  1  0  0  0  0
 18 19  1  0  0  0  0
 19 20  1  0  0  0  0
 19 70  1  0  0  0  0
 19 71  1  0  0  0  0
 20 21  2  3  0  0  0
 20 72  1  0  0  0  0
 21 22  1  0  0  0  0
 21 23  1  0  0  0  0
 22 73  1  0  0  0  0
 22 74  1  0  0  0  0
 22 75  1  0  0  0  0
 23 24  2  3  0  0  0
 23 76  1  0  0  0  0
 24 25  1  0  0  0  0
 24 77  1  0  0  0  0
 25 26  2  3  0  0  0
 25 78  1  0  0  0  0
 26 27  1  0  0  0  0
 26 28  1  0  0  0  0
 27 79  1  0  0  0  0
 27 80  1  0  0  0  0
 27 81  1  0  0  0  0
 28 29  2  3  0  0  0
 28 82  1  0  0  0  0
 29 30  1  0  0  0  0
 29 83  1  0  0  0  0
 30 31  2  0  0  0  0
 30 36  1  0  0  0  0
 31 32  1  0  0  0  0
 31 33  1  0  0  0  0
 32 84  1  0  0  0  0
 32 85  1  0  0  0  0
 32 86  1  0  0  0  0
 33 34  1  0  0  0  0
 33 87  1  0  0  0  0
 33 88  1  0  0  0  0
 34 35  1  0  0  0  0
 34 89  1  0  0  0  0
 34 90  1  0  0  0  0
 35 36  1  0  0  0  0
 35 91  1  0  0  0  0
 35 92  1  0  0  0  0
 36 37  1  0  0  0  0
 36 38  1  0  0  0  0
 37 93  1  0  0  0  0
 37 94  1  0  0  0  0
 37 95  1  0  0  0  0
 38 96  1  0  0  0  0
 38 97  1  0  0  0  0
 38 98  1  0  0  0  0
M  END
$$$$

 OpenBabel12201709243D

 33 34  0  0  0  0  0  0  0  0999 V2000
    0.8969    0.1344   -0.0252 C   0  0  0  0  0  0  0  0  0  0  0  0
    2.4513    0.0559    0.0136 C   0  0  0  0  0  0  0  0  0  0  0  0
    2.9325    1.4688    0.4462 C   0  0  0  0  0  0  0  0  0  0  0  0
    2.9031   -0.9956    1.0656 C   0  0  0  0  0  0  0  0  0  0  0  0
    2.1336   -2.1480    1.3311 C   0  0  0  0  0  0  0  0  0  0  0  0
    2.5156   -3.0793    2.3027 C   0  0  0  0  0  0  0  0  0  0  0  0
    3.6877   -2.8804    3.0164 C   0  0  0  0  0  0  0  0  0  0  0  0
    4.0842   -3.7470    3.9905 O   0  0  0  0  0  0  0  0  0  0  0  0
    4.4945   -1.7859    2.7515 C   0  0  0  0  0  0  0  0  0  0  0  0
    4.1124   -0.8575    1.7761 C   0  0  0  0  0  0  0  0  0  0  0  0
    2.9359   -0.2472   -1.4273 C   0  0  0  0  0  0  0  0  0  0  0  0
    2.6489    0.6525   -2.4778 C   0  0  0  0  0  0  0  0  0  0  0  0
    2.9814    0.3633   -3.8054 C   0  0  0  0  0  0  0  0  0  0  0  0
    3.6150   -0.8335   -4.1037 C   0  0  0  0  0  0  0  0  0  0  0  0
    3.9189   -1.1778   -5.3867 O   0  0  0  0  0  0  0  0  0  0  0  0
    3.9461   -1.7238   -3.0934 C   0  0  0  0  0  0  0  0  0  0  0  0
    3.6106   -1.4338   -1.7665 C   0  0  0  0  0  0  0  0  0  0  0  0
    0.4774    0.2589    0.9804 H   0  0  0  0  0  0  0  0  0  0  0  0
    0.4498   -0.7607   -0.4730 H   0  0  0  0  0  0  0  0  0  0  0  0
    0.5430    0.9812   -0.6256 H   0  0  0  0  0  0  0  0  0  0  0  0
    2.6738    1.6698    1.4959 H   0  0  0  0  0  0  0  0  0  0  0  0
    2.4723    2.2669   -0.1452 H   0  0  0  0  0  0  0  0  0  0  0  0
    4.0168    1.5885    0.3363 H   0  0  0  0  0  0  0  0  0  0  0  0
    1.2174   -2.3476    0.7810 H   0  0  0  0  0  0  0  0  0  0  0  0
    1.8867   -3.9468    2.4808 H   0  0  0  0  0  0  0  0  0  0  0  0
    3.3883   -4.4128    4.1127 H   0  0  0  0  0  0  0  0  0  0  0  0
    5.4202   -1.6478    3.3022 H   0  0  0  0  0  0  0  0  0  0  0  0
    4.7823   -0.0228    1.5921 H   0  0  0  0  0  0  0  0  0  0  0  0
    2.1354    1.5904   -2.2792 H   0  0  0  0  0  0  0  0  0  0  0  0
    2.7277    1.0764   -4.5831 H   0  0  0  0  0  0  0  0  0  0  0  0
    3.5242   -0.5204   -5.9826 H   0  0  0  0  0  0  0  0  0  0  0  0
    4.4517   -2.6551   -3.3359 H   0  0  0  0  0  0  0  0  0  0  0  0
    3.8759   -2.1707   -1.0123 H   0  0  0  0  0  0  0  0  0  0  0  0
  1  2  1  0  0  0  0
  1 18  1  0  0  0  0
  1 19  1  0  0  0  0
  1 20  1  0  0  0  0
  2  3  1  0  0  0  0
  2  4  1  0  0  0  0
  2 11  1  0  0  0  0
  3 21  1  0  0  0  0
  3 22  1  0  0  0  0
  3 23  1  0  0  0  0
  4  5  2  0  0  0  0
  4 10  1  0  0  0  0
  5  6  1  0  0  0  0
  5 24  1  0  0  0  0
  6  7  2  0  0  0  0
  6 25  1  0  0  0  0
  7  8  1  0  0  0  0
  7  9  1  0  0  0  0
  8 26  1  0  0  0  0
  9 10  2  0  0  0  0
  9 27  1  0  0  0  0
 10 28  1  0  0  0  0
 11 12  2  0  0  0  0
 11 17  1  0  0  0  0
 12 13  1  0  0  0  0
 12 29  1  0  0  0  0
 13 14  2  0  0  0  0
 13 30  1  0  0  0  0
 14 15  1  0  0  0  0
 14 16  1  0  0  0  0
 15 31  1  0  0  0  0
 16 17  2  0  0  0  0
 16 32  1  0  0  0  0
 17 33  1  0  0  0  0
M  END
$$$$

 OpenBabel12201709243D

 29 30  0  0  0  0  0  0  0  0999 V2000
    1.1474   -0.2656    0.7307 N   0  0  0  0  0  0  0  0  0  0  0  0
    2.5129   -0.2947    0.4264 C   0  0  0  0  0  0  0  0  0  0  0  0
    2.9415   -0.2083   -0.9019 C   0  0  0  0  0  0  0  0  0  0  0  0
    4.3043   -0.1659   -1.2142 C   0  0  0  0  0  0  0  0  0  0  0  0
    5.2457   -0.1673   -0.1826 C   0  0  0  0  0  0  0  0  0  0  0  0
    4.8276   -0.1230    1.1492 C   0  0  0  0  0  0  0  0  0  0  0  0
    3.4625   -0.1760    1.4456 C   0  0  0  0  0  0  0  0  0  0  0  0
    6.9824   -0.0857   -0.5661 S   0  0  0  0  0  0  0  0  0  0  0  0
    7.0790    0.5921   -1.8479 O   0  0  0  0  0  0  0  0  0  0  0  0
    7.6589    0.4467    0.6038 O   0  0  0  0  0  0  0  0  0  0  0  0
    7.6275   -1.7303   -0.7990 C   0  0  0  0  0  0  0  0  0  0  0  0
    8.6828   -1.9080   -1.6980 C   0  0  0  0  0  0  0  0  0  0  0  0
    9.2479   -3.1755   -1.8673 C   0  0  0  0  0  0  0  0  0  0  0  0
    8.7390   -4.2830   -1.1845 C   0  0  0  0  0  0  0  0  0  0  0  0
    9.4039   -5.5121   -1.2515 N   0  0  0  0  0  0  0  0  0  0  0  0
    7.7113   -4.0821   -0.2554 C   0  0  0  0  0  0  0  0  0  0  0  0
    7.1347   -2.8164   -0.0736 C   0  0  0  0  0  0  0  0  0  0  0  0
    0.5558   -0.6476   -0.0010 H   0  0  0  0  0  0  0  0  0  0  0  0
    0.9241   -0.6584    1.6407 H   0  0  0  0  0  0  0  0  0  0  0  0
    2.2128   -0.1726   -1.7084 H   0  0  0  0  0  0  0  0  0  0  0  0
    4.6135   -0.1059   -2.2553 H   0  0  0  0  0  0  0  0  0  0  0  0
    5.5475   -0.0277    1.9593 H   0  0  0  0  0  0  0  0  0  0  0  0
    3.1442   -0.1179    2.4838 H   0  0  0  0  0  0  0  0  0  0  0  0
    9.0939   -1.0620   -2.2452 H   0  0  0  0  0  0  0  0  0  0  0  0
   10.1008   -3.2879   -2.5325 H   0  0  0  0  0  0  0  0  0  0  0  0
    9.9031   -5.6664   -2.1226 H   0  0  0  0  0  0  0  0  0  0  0  0
    8.8389   -6.3119   -0.9850 H   0  0  0  0  0  0  0  0  0  0  0  0
    7.3595   -4.9158    0.3485 H   0  0  0  0  0  0  0  0  0  0  0  0
    6.3409   -2.7015    0.6579 H   0  0  0  0  0  0  0  0  0  0  0  0
  1  2  1  0  0  0  0
  1 18  1  0  0  0  0
  1 19  1  0  0  0  0
  2  3  2  0  0  0  0
  2  7  1  0  0  0  0
  3  4  1  0  0  0  0
  3 20  1  0  0  0  0
  4  5  2  0  0  0  0
  4 21  1  0  0  0  0
  5  6  1  0  0  0  0
  5  8  1  0  0  0  0
  6  7  2  0  0  0  0
  6 22  1  0  0  0  0
  7 23  1  0  0  0  0
  8  9  2  0  0  0  0
  8 10  2  0  0  0  0
  8 11  1  0  0  0  0
 11 12  2  0  0  0  0
 11 17  1  0  0  0  0
 12 13  1  0  0  0  0
 12 24  1  0  0  0  0
 13 14  2  0  0  0  0
 13 25  1  0  0  0  0
 14 15  1  0  0  0  0
 14 16  1  0  0  0  0
 15 26  1  0  0  0  0
 15 27  1  0  0  0  0
 16 17  2  0  0  0  0
 16 28  1  0  0  0  0
 17 29  1  0  0  0  0
M  END
$$$$

 OpenBabel12201709243D

 15 14  0  0  0  0  0  0  0  0999 V2000
    1.1796    0.0557   -0.0525 C   0  0  0  0  0  0  0  0  0  0  0  0
    2.6072    0.0524   -0.0551 O   0  0  0  0  0  0  0  0  0  0  0  0
    3.1628    1.0689    0.6537 C   0  0  0  0  0  0  0  0  0  0  0  0
    2.5385    1.9309    1.2549 O   0  0  0  0  0  0  0  0  0  0  0  0
    4.6543    1.0109    0.6129 C   0  0  0  0  0  0  0  0  0  0  0  0
    5.3196    0.0518   -0.0556 C   0  0  0  0  0  0  0  0  0  0  0  0
    5.3954    2.0811    1.3586 C   0  0  0  0  0  0  0  0  0  0  0  0
    0.8377   -0.7965   -0.6464 H   0  0  0  0  0  0  0  0  0  0  0  0
    0.7971    0.9728   -0.5116 H   0  0  0  0  0  0  0  0  0  0  0  0
    0.7972   -0.0574    0.9668 H   0  0  0  0  0  0  0  0  0  0  0  0
    4.8135   -0.7362   -0.6047 H   0  0  0  0  0  0  0  0  0  0  0  0
    6.4052    0.0319   -0.0697 H   0  0  0  0  0  0  0  0  0  0  0  0
    4.7304    2.7938    1.8549 H   0  0  0  0  0  0  0  0  0  0  0  0
    6.0304    2.6530    0.6733 H   0  0  0  0  0  0  0  0  0  0  0  0
    6.0300    1.6363    2.1327 H   0  0  0  0  0  0  0  0  0  0  0  0
  1  2  1  0  0  0  0
  1  8  1  0  0  0  0
  1  9  1  0  0  0  0
  1 10  1  0  0  0  0
  2  3  1  0  0  0  0
  3  4  2  0  0  0  0
  3  5  1  0  0  0  0
  5  6  2  0  0  0  0
  5  7  1  0  0  0  0
  6 11  1  0  0  0  0
  6 12  1  0  0  0  0
  7 13  1  0  0  0  0
  7 14  1  0  0  0  0
  7 15  1  0  0  0  0
M  END
$$$$

 OpenBabel12201709243D

 47 48  0  0  0  0  0  0  0  0999 V2000
    5.2116   10.7805    3.1578 C   0  0  0  0  0  0  0  0  0  0  0  0
    6.1734   10.5386    2.1349 O   0  0  0  0  0  0  0  0  0  0  0  0
    5.9825    9.3846    1.4185 C   0  0  0  0  0  0  0  0  0  0  0  0
    4.7205    8.8335    1.1731 C   0  0  0  0  0  0  0  0  0  0  0  0
    4.5809    7.6258    0.4741 C   0  0  0  0  0  0  0  0  0  0  0  0
    3.2657    7.0026    0.2625 C   0  0  0  0  0  0  0  0  0  0  0  0
    2.2526    7.0988    1.1383 C   0  0  0  0  0  0  0  0  0  0  0  0
    0.9478    6.4278    0.8779 C   0  0  0  0  0  0  0  0  0  0  0  0
    0.7526    5.7870   -0.1554 O   0  0  0  0  0  0  0  0  0  0  0  0
   -0.1204    6.5450    1.9297 C   0  0  0  0  0  0  0  0  0  0  0  0
   -0.5903    7.9594    2.1245 C   0  0  0  0  0  0  0  0  0  0  0  0
   -0.0361    8.7040    2.9323 O   0  0  0  0  0  0  0  0  0  0  0  0
   -1.7128    8.4364    1.2633 C   0  0  0  0  0  0  0  0  0  0  0  0
   -2.1696    9.6889    1.4138 C   0  0  0  0  0  0  0  0  0  0  0  0
   -3.2352   10.3205    0.6179 C   0  0  0  0  0  0  0  0  0  0  0  0
   -3.4838    9.9813   -0.7179 C   0  0  0  0  0  0  0  0  0  0  0  0
   -4.4407   10.6781   -1.4604 C   0  0  0  0  0  0  0  0  0  0  0  0
   -5.1436   11.7277   -0.8710 C   0  0  0  0  0  0  0  0  0  0  0  0
   -6.0626   12.4283   -1.6060 O   0  0  0  0  0  0  0  0  0  0  0  0
   -4.9161   12.0889    0.4626 C   0  0  0  0  0  0  0  0  0  0  0  0
   -5.6481   13.1457    0.9364 O   0  0  0  0  0  0  0  0  0  0  0  0
   -5.4300   13.5504    2.2800 C   0  0  0  0  0  0  0  0  0  0  0  0
   -3.9627   11.3757    1.1982 C   0  0  0  0  0  0  0  0  0  0  0  0
    5.7253    7.0177   -0.0561 C   0  0  0  0  0  0  0  0  0  0  0  0
    6.9894    7.5814    0.1456 C   0  0  0  0  0  0  0  0  0  0  0  0
    7.1129    8.7560    0.8872 C   0  0  0  0  0  0  0  0  0  0  0  0
    8.3506    9.2934    1.1151 O   0  0  0  0  0  0  0  0  0  0  0  0
    5.5842   11.5932    3.7876 H   0  0  0  0  0  0  0  0  0  0  0  0
    5.0728    9.8984    3.7943 H   0  0  0  0  0  0  0  0  0  0  0  0
    4.2577   11.1080    2.7316 H   0  0  0  0  0  0  0  0  0  0  0  0
    3.8309    9.3516    1.5140 H   0  0  0  0  0  0  0  0  0  0  0  0
    3.1521    6.4126   -0.6461 H   0  0  0  0  0  0  0  0  0  0  0  0
    2.3337    7.6504    2.0688 H   0  0  0  0  0  0  0  0  0  0  0  0
    0.2592    6.1555    2.8810 H   0  0  0  0  0  0  0  0  0  0  0  0
   -0.9689    5.9069    1.6581 H   0  0  0  0  0  0  0  0  0  0  0  0
   -2.1136    7.7424    0.5345 H   0  0  0  0  0  0  0  0  0  0  0  0
   -1.7297   10.3291    2.1789 H   0  0  0  0  0  0  0  0  0  0  0  0
   -2.9222    9.1915   -1.2098 H   0  0  0  0  0  0  0  0  0  0  0  0
   -4.6127   10.4010   -2.4959 H   0  0  0  0  0  0  0  0  0  0  0  0
   -6.0419   12.1169   -2.5237 H   0  0  0  0  0  0  0  0  0  0  0  0
   -6.0314   14.4465    2.4614 H   0  0  0  0  0  0  0  0  0  0  0  0
   -4.3828   13.8180    2.4554 H   0  0  0  0  0  0  0  0  0  0  0  0
   -5.7633   12.7757    2.9781 H   0  0  0  0  0  0  0  0  0  0  0  0
   -3.7604   11.6341    2.2330 H   0  0  0  0  0  0  0  0  0  0  0  0
    5.6464    6.0926   -0.6239 H   0  0  0  0  0  0  0  0  0  0  0  0
    7.8616    7.0873   -0.2720 H   0  0  0  0  0  0  0  0  0  0  0  0
    9.0228    8.7314    0.7004 H   0  0  0  0  0  0  0  0  0  0  0  0
  1  2  1  0  0  0  0
  1 28  1  0  0  0  0
  1 29  1  0  0  0  0
  1 30  1  0  0  0  0
  2  3  1  0  0  0  0
  3  4  2  0  0  0  0
  3 26  1  0  0  0  0
  4  5  1  0  0  0  0
  4 31  1  0  0  0  0
  5  6  1  0  0  0  0
  5 24  2  0  0  0  0
  6  7  2  3  0  0  0
  6 32  1  0  0  0  0
  7  8  1  0  0  0  0
  7 33  1  0  0  0  0
  8  9  2  0  0  0  0
  8 10  1  0  0  0  0
 10 11  1  0  0  0  0
 10 34  1  0  0  0  0
 10 35  1  0  0  0  0
 11 12  2  0  0  0  0
 11 13  1  0  0  0  0
 13 14  2  3  0  0  0
 13 36  1  0  0  0  0
 14 15  1  0  0  0  0
 14 37  1  0  0  0  0
 15 16  2  0  0  0  0
 15 23  1  0  0  0  0
 16 17  1  0  0  0  0
 16 38  1  0  0  0  0
 17 18  2  0  0  0  0
 17 39  1  0  0  0  0
 18 19  1  0  0  0  0
 18 20  1  0  0  0  0
 19 40  1  0  0  0  0
 20 21  1  0  0  0  0
 20 23  2  0  0  0  0
 21 22  1  0  0  0  0
 22 41  1  0  0  0  0
 22 42  1  0  0  0  0
 22 43  1  0  0  0  0
 23 44  1  0  0  0  0
 24 25  1  0  0  0  0
 24 45  1  0  0  0  0
 25 26  2  0  0  0  0
 25 46  1  0  0  0  0
 26 27  1  0  0  0  0
 27 47  1  0  0  0  0
M  END
$$$$

 OpenBabel12201709243D

 17 18  0  0  0  0  0  0  0  0999 V2000
    1.0669    0.3714    0.0014 O   0  0  0  0  0  0  0  0  0  0  0  0
    2.2649    0.2045   -0.0988 C   0  0  0  0  0  0  0  0  0  0  0  0
    3.2113    1.2395   -0.1877 N   0  0  0  0  0  0  0  0  0  0  0  0
    4.7956    0.7245   -0.0620 S   0  0  0  0  0  0  0  0  0  0  0  0
    5.4809    1.0125   -1.2970 O   0  0  0  0  0  0  0  0  0  0  0  0
    5.2900    1.0891    1.2431 O   0  0  0  0  0  0  0  0  0  0  0  0
    4.3472   -0.9566   -0.0456 C   0  0  0  0  0  0  0  0  0  0  0  0
    5.2042   -2.0416   -0.0377 C   0  0  0  0  0  0  0  0  0  0  0  0
    4.6256   -3.3119   -0.0491 C   0  0  0  0  0  0  0  0  0  0  0  0
    3.2256   -3.4656   -0.0682 C   0  0  0  0  0  0  0  0  0  0  0  0
    2.3807   -2.3498   -0.0843 C   0  0  0  0  0  0  0  0  0  0  0  0
    2.9651   -1.0934   -0.0843 C   0  0  0  0  0  0  0  0  0  0  0  0
    2.9572    2.1780    0.1002 H   0  0  0  0  0  0  0  0  0  0  0  0
    6.2825   -1.9115   -0.0267 H   0  0  0  0  0  0  0  0  0  0  0  0
    5.2618   -4.1959   -0.0449 H   0  0  0  0  0  0  0  0  0  0  0  0
    2.7972   -4.4668   -0.0732 H   0  0  0  0  0  0  0  0  0  0  0  0
    1.3005   -2.4659   -0.0995 H   0  0  0  0  0  0  0  0  0  0  0  0
  1  2  2  0  0  0  0
  2  3  1  0  0  0  0
  2 12  1  0  0  0  0
  3  4  1  0  0  0  0
  3 13  1  0  0  0  0
  4  5  2  0  0  0  0
  4  6  2  0  0  0  0
  4  7  1  0  0  0  0
  7  8  2  0  0  0  0
  7 12  1  0  0  0  0
  8  9  1  0  0  0  0
  8 14  1  0  0  0  0
  9 10  2  0  0  0  0
  9 15  1  0  0  0  0
 10 11  1  0  0  0  0
 10 16  1  0  0  0  0
 11 12  2  0  0  0  0
 11 17  1  0  0  0  0
M  END
$$$$

 OpenBabel12201709243D

 18 17  0  0  0  0  0  0  0  0999 V2000
    2.7063    0.3978    1.4442 C   0  0  0  0  0  0  0  0  0  0  0  0
    2.4154   -0.0460    0.0189 C   0  0  0  0  0  0  0  0  0  0  0  0
    3.0493    0.8496   -1.0507 C   0  0  0  0  0  0  0  0  0  0  0  0
    4.5107    0.7877   -1.0879 N   0  0  0  0  0  0  0  0  0  0  0  0
    5.2918    1.7269   -0.4031 N   0  0  0  0  0  0  0  0  0  0  0  0
    4.6482    2.5950    0.1928 O   0  0  0  0  0  0  0  0  0  0  0  0
    5.1298   -0.2166   -1.8206 C   0  0  0  0  0  0  0  0  0  0  0  0
    4.5261   -1.0844   -2.4535 O   0  0  0  0  0  0  0  0  0  0  0  0
    6.4923   -0.2408   -1.8246 N   0  0  0  0  0  0  0  0  0  0  0  0
    2.1474   -0.2218    2.1531 H   0  0  0  0  0  0  0  0  0  0  0  0
    2.4089    1.4397    1.6015 H   0  0  0  0  0  0  0  0  0  0  0  0
    3.7687    0.2973    1.6849 H   0  0  0  0  0  0  0  0  0  0  0  0
    1.3284   -0.0367   -0.1269 H   0  0  0  0  0  0  0  0  0  0  0  0
    2.7453   -1.0834   -0.1093 H   0  0  0  0  0  0  0  0  0  0  0  0
    2.7102    1.8869   -0.9430 H   0  0  0  0  0  0  0  0  0  0  0  0
    2.6768    0.5171   -2.0282 H   0  0  0  0  0  0  0  0  0  0  0  0
    7.0464    0.5442   -1.5116 H   0  0  0  0  0  0  0  0  0  0  0  0
    6.9312   -0.9101   -2.4432 H   0  0  0  0  0  0  0  0  0  0  0  0
  1  2  1  0  0  0  0
  1 10  1  0  0  0  0
  1 11  1  0  0  0  0
  1 12  1  0  0  0  0
  2  3  1  0  0  0  0
  2 13  1  0  0  0  0
  2 14  1  0  0  0  0
  3  4  1  0  0  0  0
  3 15  1  0  0  0  0
  3 16  1  0  0  0  0
  4  5  1  0  0  0  0
  4  7  1  0  0  0  0
  5  6  2  0  0  0  0
  7  8  2  0  0  0  0
  7  9  1  0  0  0  0
  9 17  1  0  0  0  0
  9 18  1  0  0  0  0
M  END
$$$$

 OpenBabel12201709243D

 29 31  0  0  0  0  0  0  0  0999 V2000
    0.8854    0.0601   -0.0667 C   0  0  0  0  0  0  0  0  0  0  0  0
    2.3882   -0.0382   -0.0407 C   0  0  0  0  0  0  0  0  0  0  0  0
    3.1450    1.1428   -0.0156 C   0  0  0  0  0  0  0  0  0  0  0  0
    4.5371    1.0941   -0.0162 C   0  0  0  0  0  0  0  0  0  0  0  0
    5.1950   -0.1398   -0.0329 C   0  0  0  0  0  0  0  0  0  0  0  0
    6.6732   -0.1572   -0.0366 C   0  0  0  0  0  0  0  0  0  0  0  0
    7.3077    0.8918   -0.0251 O   0  0  0  0  0  0  0  0  0  0  0  0
    7.3801   -1.4506   -0.0532 C   0  0  0  0  0  0  0  0  0  0  0  0
    8.7813   -1.4817   -0.0613 C   0  0  0  0  0  0  0  0  0  0  0  0
    9.4542   -2.7052   -0.0632 C   0  0  0  0  0  0  0  0  0  0  0  0
    8.7328   -3.8979   -0.0584 C   0  0  0  0  0  0  0  0  0  0  0  0
    7.3381   -3.8677   -0.0509 C   0  0  0  0  0  0  0  0  0  0  0  0
    6.6603   -2.6407   -0.0470 C   0  0  0  0  0  0  0  0  0  0  0  0
    5.1867   -2.6259   -0.0108 C   0  0  0  0  0  0  0  0  0  0  0  0
    4.5833   -3.6918    0.0882 O   0  0  0  0  0  0  0  0  0  0  0  0
    4.4596   -1.3285   -0.0491 C   0  0  0  0  0  0  0  0  0  0  0  0
    3.0417   -1.2907   -0.0371 C   0  0  0  0  0  0  0  0  0  0  0  0
    2.2812   -2.4608   -0.2471 N   0  0  0  0  0  0  0  0  0  0  0  0
    0.5481    1.1019   -0.0678 H   0  0  0  0  0  0  0  0  0  0  0  0
    0.4627   -0.4200    0.8223 H   0  0  0  0  0  0  0  0  0  0  0  0
    0.4853   -0.4182   -0.9662 H   0  0  0  0  0  0  0  0  0  0  0  0
    2.6518    2.1134   -0.0113 H   0  0  0  0  0  0  0  0  0  0  0  0
    5.1050    2.0233   -0.0078 H   0  0  0  0  0  0  0  0  0  0  0  0
    9.3525   -0.5547   -0.0613 H   0  0  0  0  0  0  0  0  0  0  0  0
   10.5417   -2.7276   -0.0637 H   0  0  0  0  0  0  0  0  0  0  0  0
    9.2545   -4.8523   -0.0566 H   0  0  0  0  0  0  0  0  0  0  0  0
    6.7818   -4.8035   -0.0431 H   0  0  0  0  0  0  0  0  0  0  0  0
    2.8187   -3.3123   -0.0387 H   0  0  0  0  0  0  0  0  0  0  0  0
    1.3701   -2.4694    0.1950 H   0  0  0  0  0  0  0  0  0  0  0  0
  1  2  1  0  0  0  0
  1 19  1  0  0  0  0
  1 20  1  0  0  0  0
  1 21  1  0  0  0  0
  2  3  2  0  0  0  0
  2 17  1  0  0  0  0
  3  4  1  0  0  0  0
  3 22  1  0  0  0  0
  4  5  2  0  0  0  0
  4 23  1  0  0  0  0
  5  6  1  0  0  0  0
  5 16  1  0  0  0  0
  6  7  2  0  0  0  0
  6  8  1  0  0  0  0
  8  9  2  0  0  0  0
  8 13  1  0  0  0  0
  9 10  1  0  0  0  0
  9 24  1  0  0  0  0
 10 11  2  0  0  0  0
 10 25  1  0  0  0  0
 11 12  1  0  0  0  0
 11 26  1  0  0  0  0
 12 13  2  0  0  0  0
 12 27  1  0  0  0  0
 13 14  1  0  0  0  0
 14 15  2  0  0  0  0
 14 16  1  0  0  0  0
 16 17  2  0  0  0  0
 17 18  1  0  0  0  0
 18 28  1  0  0  0  0
 18 29  1  0  0  0  0
M  END
$$$$

 OpenBabel12201709243D

 15 15  0  0  0  0  0  0  0  0999 V2000
    0.9252   -0.0089    0.1062 O   0  0  0  0  0  0  0  0  0  0  0  0
    2.2931   -0.0485   -0.0081 N   0  0  0  0  0  0  0  0  0  0  0  0
    2.9617    0.6426    0.7290 O   0  0  0  0  0  0  0  0  0  0  0  0
    2.9320   -0.9182   -0.9487 C   0  0  0  0  0  0  0  0  0  0  0  0
    3.7630   -0.3879   -1.9476 C   0  0  0  0  0  0  0  0  0  0  0  0
    3.9515    1.3339   -2.1030 Cl  0  0  0  0  0  0  0  0  0  0  0  0
    4.4136   -1.2570   -2.8434 C   0  0  0  0  0  0  0  0  0  0  0  0
    5.4889   -0.6142   -4.0549 Cl  0  0  0  0  0  0  0  0  0  0  0  0
    4.1970   -2.6464   -2.7565 C   0  0  0  0  0  0  0  0  0  0  0  0
    4.9873   -3.7213   -3.8805 Cl  0  0  0  0  0  0  0  0  0  0  0  0
    3.3462   -3.1681   -1.7658 C   0  0  0  0  0  0  0  0  0  0  0  0
    3.0602   -4.8857   -1.6744 Cl  0  0  0  0  0  0  0  0  0  0  0  0
    2.7252   -2.3014   -0.8498 C   0  0  0  0  0  0  0  0  0  0  0  0
    1.7389   -2.9473    0.4322 Cl  0  0  0  0  0  0  0  0  0  0  0  0
    0.8713    0.6031    0.8612 H   0  0  0  0  0  0  0  0  0  0  0  0
  1  2  1  0  0  0  0
  1 15  1  0  0  0  0
  2  3  2  0  0  0  0
  2  4  1  0  0  0  0
  4  5  2  0  0  0  0
  4 13  1  0  0  0  0
  5  6  1  0  0  0  0
  5  7  1  0  0  0  0
  7  8  1  0  0  0  0
  7  9  2  0  0  0  0
  9 10  1  0  0  0  0
  9 11  1  0  0  0  0
 11 12  1  0  0  0  0
 11 13  2  0  0  0  0
 13 14  1  0  0  0  0
M  END
$$$$

 OpenBabel12201709243D

 26 26  0  0  1  0  0  0  0  0999 V2000
    0.9615    0.0157    0.0625 C   0  0  0  0  0  0  0  0  0  0  0  0
    2.4699   -0.0514   -0.1672 C   0  0  3  0  0  0  0  0  0  0  0  0
    2.9625   -1.4467   -0.5217 C   0  0  0  0  0  0  0  0  0  0  0  0
    2.5893   -1.7844   -1.9607 C   0  0  3  0  0  0  0  0  0  0  0  0
    3.1439   -3.0571   -2.3172 O   0  0  0  0  0  0  0  0  0  0  0  0
    2.4280   -4.1234   -1.8784 C   0  0  0  0  0  0  0  0  0  0  0  0
    1.3791   -4.0615   -1.2492 O   0  0  0  0  0  0  0  0  0  0  0  0
    3.0784   -5.4104   -2.2825 C   0  0  0  0  0  0  0  0  0  0  0  0
    3.1337   -0.7788   -2.8142 O   0  0  0  0  0  0  0  0  0  0  0  0
    2.5817    0.4927   -2.4896 C   0  0  3  0  0  0  0  0  0  0  0  0
    3.1912    1.5248   -3.4250 C   0  0  0  0  0  0  0  0  0  0  0  0
    2.8912    0.8863   -1.1561 O   0  0  0  0  0  0  0  0  0  0  0  0
    0.6596   -0.6607    0.8684 H   0  0  0  0  0  0  0  0  0  0  0  0
    0.3882   -0.2463   -0.8313 H   0  0  0  0  0  0  0  0  0  0  0  0
    0.6664    1.0348    0.3337 H   0  0  0  0  0  0  0  0  0  0  0  0
    2.9517    0.2527    0.7696 H   0  0  0  0  0  0  0  0  0  0  0  0
    2.5918   -2.1939    0.1877 H   0  0  0  0  0  0  0  0  0  0  0  0
    4.0580   -1.4598   -0.4437 H   0  0  0  0  0  0  0  0  0  0  0  0
    1.5036   -1.8076   -2.1196 H   0  0  0  0  0  0  0  0  0  0  0  0
    4.1212   -5.2465   -2.5670 H   0  0  0  0  0  0  0  0  0  0  0  0
    2.5356   -5.8443   -3.1253 H   0  0  0  0  0  0  0  0  0  0  0  0
    3.0687   -6.0974   -1.4309 H   0  0  0  0  0  0  0  0  0  0  0  0
    1.4965    0.4858   -2.6460 H   0  0  0  0  0  0  0  0  0  0  0  0
    4.2813    1.5513   -3.3153 H   0  0  0  0  0  0  0  0  0  0  0  0
    2.8151    2.5281   -3.1988 H   0  0  0  0  0  0  0  0  0  0  0  0
    2.9725    1.2845   -4.4700 H   0  0  0  0  0  0  0  0  0  0  0  0
  1  2  1  0  0  0  0
  1 13  1  0  0  0  0
  1 14  1  0  0  0  0
  1 15  1  0  0  0  0
  2  3  1  0  0  0  0
  2 12  1  0  0  0  0
  2 16  1  0  0  0  0
  3  4  1  0  0  0  0
  3 17  1  0  0  0  0
  3 18  1  0  0  0  0
  4  5  1  0  0  0  0
  4  9  1  0  0  0  0
  4 19  1  0  0  0  0
  5  6  1  0  0  0  0
  6  7  2  0  0  0  0
  6  8  1  0  0  0  0
  8 20  1  0  0  0  0
  8 21  1  0  0  0  0
  8 22  1  0  0  0  0
  9 10  1  0  0  0  0
 10 11  1  0  0  0  0
 10 12  1  0  0  0  0
 10 23  1  0  0  0  0
 11 24  1  0  0  0  0
 11 25  1  0  0  0  0
 11 26  1  0  0  0  0
M  END
$$$$

 OpenBabel12201709243D

 51 55  0  0  1  0  0  0  0  0999 V2000
    1.0639   -0.9567   -0.1858 C   0  0  0  0  0  0  0  0  0  0  0  0
    2.3032   -0.5252    0.3447 O   0  0  0  0  0  0  0  0  0  0  0  0
    3.4272   -1.2881    0.1910 C   0  0  0  0  0  0  0  0  0  0  0  0
    4.4847   -0.5721   -0.3101 C   0  0  0  0  0  0  0  0  0  0  0  0
    5.7908   -1.0393   -0.1771 C   0  0  0  0  0  0  0  0  0  0  0  0
    6.6967   -0.1888   -0.7470 O   0  0  0  0  0  0  0  0  0  0  0  0
    7.2844    0.4810    0.3354 C   0  0  0  0  0  0  0  0  0  0  0  0
    8.1060   -0.5379    1.0404 C   0  0  3  0  0  0  0  0  0  0  0  0
    8.5979    0.1164    2.1934 O   0  0  0  0  0  0  0  0  0  0  0  0
    9.8538   -0.3684    2.2944 C   0  0  0  0  0  0  0  0  0  0  0  0
   10.8121    0.6368    2.3408 C   0  0  0  0  0  0  0  0  0  0  0  0
   10.6179    2.0811    2.0922 C   0  0  0  0  0  0  0  0  0  0  0  0
   12.0023    2.5775    2.5073 C   0  0  3  0  0  0  0  0  0  0  0  0
   12.9380    1.4509    2.2723 O   0  0  0  0  0  0  0  0  0  0  0  0
   12.1398    0.3204    2.3254 C   0  0  0  0  0  0  0  0  0  0  0  0
   12.5114   -1.0227    2.2886 C   0  0  0  0  0  0  0  0  0  0  0  0
   11.5015   -2.0543    2.1694 C   0  0  0  0  0  0  0  0  0  0  0  0
   10.1186   -1.7429    2.1377 C   0  0  0  0  0  0  0  0  0  0  0  0
    8.8592   -2.6543    1.6953 C   0  0  0  0  0  0  0  0  0  0  0  0
    8.9989   -3.8682    1.5612 O   0  0  0  0  0  0  0  0  0  0  0  0
    7.4986   -1.8718    1.5057 C   0  0  3  0  0  0  0  0  0  0  0  0
    6.1724   -2.1157    0.6593 C   0  0  0  0  0  0  0  0  0  0  0  0
    5.0686   -2.9477    1.0141 C   0  0  0  0  0  0  0  0  0  0  0  0
    3.6979   -2.5584    0.7175 C   0  0  0  0  0  0  0  0  0  0  0  0
    2.5997   -3.2968    1.0841 O   0  0  0  0  0  0  0  0  0  0  0  0
    2.6262   -4.6707    0.7059 C   0  0  0  0  0  0  0  0  0  0  0  0
   12.3727    3.8969    1.8150 C   0  0  0  0  0  0  0  0  0  0  0  0
   13.5298    4.1239    1.1703 C   0  0  0  0  0  0  0  0  0  0  0  0
   11.3760    5.0392    1.8940 C   0  0  0  0  0  0  0  0  0  0  0  0
    0.2844   -0.4341    0.3835 H   0  0  0  0  0  0  0  0  0  0  0  0
    0.8889   -2.0271   -0.1003 H   0  0  0  0  0  0  0  0  0  0  0  0
    0.9598   -0.6318   -1.2273 H   0  0  0  0  0  0  0  0  0  0  0  0
    4.3283    0.4346   -0.6923 H   0  0  0  0  0  0  0  0  0  0  0  0
    6.5677    0.9885    0.9934 H   0  0  0  0  0  0  0  0  0  0  0  0
    7.9456    1.2599   -0.0616 H   0  0  0  0  0  0  0  0  0  0  0  0
    8.8838   -0.7717    0.2797 H   0  0  0  0  0  0  0  0  0  0  0  0
    9.8081    2.5130    2.6824 H   0  0  0  0  0  0  0  0  0  0  0  0
   10.4249    2.2473    1.0237 H   0  0  0  0  0  0  0  0  0  0  0  0
   12.0123    2.7685    3.5900 H   0  0  0  0  0  0  0  0  0  0  0  0
   13.5690   -1.2792    2.2966 H   0  0  0  0  0  0  0  0  0  0  0  0
   11.8381   -3.0921    2.0743 H   0  0  0  0  0  0  0  0  0  0  0  0
    7.1290   -1.7838    2.5412 H   0  0  0  0  0  0  0  0  0  0  0  0
    5.2210   -3.8431    1.6142 H   0  0  0  0  0  0  0  0  0  0  0  0
    1.5960   -4.9881    0.4931 H   0  0  0  0  0  0  0  0  0  0  0  0
    2.9839   -5.2588    1.5532 H   0  0  0  0  0  0  0  0  0  0  0  0
    3.2191   -4.8751   -0.1931 H   0  0  0  0  0  0  0  0  0  0  0  0
   14.3008    3.3664    1.0908 H   0  0  0  0  0  0  0  0  0  0  0  0
   13.7412    5.0916    0.7173 H   0  0  0  0  0  0  0  0  0  0  0  0
   10.4661    4.7669    2.4355 H   0  0  0  0  0  0  0  0  0  0  0  0
   11.0713    5.3613    0.8897 H   0  0  0  0  0  0  0  0  0  0  0  0
   11.8093    5.9028    2.4124 H   0  0  0  0  0  0  0  0  0  0  0  0
  1  2  1  0  0  0  0
  1 30  1  0  0  0  0
  1 31  1  0  0  0  0
  1 32  1  0  0  0  0
  2  3  1  0  0  0  0
  3  4  2  0  0  0  0
  3 24  1  0  0  0  0
  4  5  1  0  0  0  0
  4 33  1  0  0  0  0
  5  6  1  0  0  0  0
  5 22  2  0  0  0  0
  6  7  1  0  0  0  0
  7  8  1  0  0  0  0
  7 34  1  0  0  0  0
  7 35  1  0  0  0  0
  8  9  1  0  0  0  0
  8 21  1  0  0  0  0
  8 36  1  0  0  0  0
  9 10  1  0  0  0  0
 10 11  2  0  0  0  0
 10 18  1  0  0  0  0
 11 12  1  0  0  0  0
 11 15  1  0  0  0  0
 12 13  1  0  0  0  0
 12 37  1  0  0  0  0
 12 38  1  0  0  0  0
 13 14  1  0  0  0  0
 13 27  1  0  0  0  0
 13 39  1  0  0  0  0
 14 15  1  0  0  0  0
 15 16  2  0  0  0  0
 16 17  1  0  0  0  0
 16 40  1  0  0  0  0
 17 18  2  0  0  0  0
 17 41  1  0  0  0  0
 18 19  1  0  0  0  0
 19 20  2  0  0  0  0
 19 21  1  0  0  0  0
 21 22  1  0  0  0  0
 21 42  1  0  0  0  0
 22 23  1  0  0  0  0
 23 24  2  0  0  0  0
 23 43  1  0  0  0  0
 24 25  1  0  0  0  0
 25 26  1  0  0  0  0
 26 44  1  0  0  0  0
 26 45  1  0  0  0  0
 26 46  1  0  0  0  0
 27 28  2  0  0  0  0
 27 29  1  0  0  0  0
 28 47  1  0  0  0  0
 28 48  1  0  0  0  0
 29 49  1  0  0  0  0
 29 50  1  0  0  0  0
 29 51  1  0  0  0  0
M  END
$$$$

 OpenBabel12201709243D

 30 30  0  0  0  0  0  0  0  0999 V2000
    2.8923    3.3827   -0.6785 N   0  0  0  0  0  0  0  0  0  0  0  0
    2.4339    2.1370   -0.4193 C   0  0  0  0  0  0  0  0  0  0  0  0
    1.1903    1.8935   -0.1851 N   0  0  0  0  0  0  0  0  0  0  0  0
    3.3511    1.1403   -0.3726 N   0  0  0  0  0  0  0  0  0  0  0  0
    4.7017    1.0249   -0.4940 C   0  0  0  0  0  0  0  0  0  0  0  0
    5.3605    0.0201   -0.0194 N   0  0  0  0  0  0  0  0  0  0  0  0
    5.3311    2.0537   -1.1407 N   0  0  0  0  0  0  0  0  0  0  0  0
    6.7760    1.9988   -1.3531 C   0  0  0  0  0  0  0  0  0  0  0  0
    7.2658    3.2177   -2.1382 C   0  0  0  0  0  0  0  0  0  0  0  0
    8.7660    3.1853   -2.3052 C   0  0  0  0  0  0  0  0  0  0  0  0
    9.3457    2.5221   -3.3951 C   0  0  0  0  0  0  0  0  0  0  0  0
   10.7339    2.4391   -3.5149 C   0  0  0  0  0  0  0  0  0  0  0  0
   11.5544    3.0152   -2.5471 C   0  0  0  0  0  0  0  0  0  0  0  0
   10.9880    3.6764   -1.4590 C   0  0  0  0  0  0  0  0  0  0  0  0
    9.6002    3.7607   -1.3367 C   0  0  0  0  0  0  0  0  0  0  0  0
    2.3263    4.1351   -0.3101 H   0  0  0  0  0  0  0  0  0  0  0  0
    3.8719    3.4900   -0.4144 H   0  0  0  0  0  0  0  0  0  0  0  0
    0.6579    2.7616   -0.2664 H   0  0  0  0  0  0  0  0  0  0  0  0
    2.8937    0.2920   -0.0677 H   0  0  0  0  0  0  0  0  0  0  0  0
    4.7277   -0.6255    0.4552 H   0  0  0  0  0  0  0  0  0  0  0  0
    4.8090    2.3456   -1.9637 H   0  0  0  0  0  0  0  0  0  0  0  0
    7.0393    1.0807   -1.8926 H   0  0  0  0  0  0  0  0  0  0  0  0
    7.2756    1.9676   -0.3767 H   0  0  0  0  0  0  0  0  0  0  0  0
    6.9693    4.1454   -1.6320 H   0  0  0  0  0  0  0  0  0  0  0  0
    6.7855    3.2531   -3.1249 H   0  0  0  0  0  0  0  0  0  0  0  0
    8.7204    2.0544   -4.1524 H   0  0  0  0  0  0  0  0  0  0  0  0
   11.1757    1.9168   -4.3596 H   0  0  0  0  0  0  0  0  0  0  0  0
   12.6351    2.9435   -2.6375 H   0  0  0  0  0  0  0  0  0  0  0  0
   11.6278    4.1192   -0.7001 H   0  0  0  0  0  0  0  0  0  0  0  0
    9.1745    4.2673   -0.4733 H   0  0  0  0  0  0  0  0  0  0  0  0
  1  2  1  0  0  0  0
  1 16  1  0  0  0  0
  1 17  1  0  0  0  0
  2  3  2  0  0  0  0
  2  4  1  0  0  0  0
  3 18  1  0  0  0  0
  4  5  1  0  0  0  0
  4 19  1  0  0  0  0
  5  6  2  0  0  0  0
  5  7  1  0  0  0  0
  6 20  1  0  0  0  0
  7  8  1  0  0  0  0
  7 21  1  0  0  0  0
  8  9  1  0  0  0  0
  8 22  1  0  0  0  0
  8 23  1  0  0  0  0
  9 10  1  0  0  0  0
  9 24  1  0  0  0  0
  9 25  1  0  0  0  0
 10 11  2  0  0  0  0
 10 15  1  0  0  0  0
 11 12  1  0  0  0  0
 11 26  1  0  0  0  0
 12 13  2  0  0  0  0
 12 27  1  0  0  0  0
 13 14  1  0  0  0  0
 13 28  1  0  0  0  0
 14 15  2  0  0  0  0
 14 29  1  0  0  0  0
 15 30  1  0  0  0  0
M  END
$$$$

 OpenBabel12201709243D

 35 36  0  0  0  0  0  0  0  0999 V2000
    2.8831   -0.3468    2.9311 C   0  0  0  0  0  0  0  0  0  0  0  0
    3.2986   -0.1216    1.5026 C   0  0  0  0  0  0  0  0  0  0  0  0
    4.1164    0.9802    1.2019 C   0  0  0  0  0  0  0  0  0  0  0  0
    4.4416    1.3017   -0.1233 C   0  0  0  0  0  0  0  0  0  0  0  0
    5.1138    2.6191   -0.4449 C   0  0  0  0  0  0  0  0  0  0  0  0
    4.1804    3.8175   -0.5254 C   0  0  0  0  0  0  0  0  0  0  0  0
    2.8212    3.7513   -0.1981 C   0  0  0  0  0  0  0  0  0  0  0  0
    2.0279    4.8979   -0.1924 C   0  0  0  0  0  0  0  0  0  0  0  0
    2.5383    6.1406   -0.5827 C   0  0  0  0  0  0  0  0  0  0  0  0
    1.7354    7.2738   -0.3794 N   0  0  0  0  0  0  0  0  0  0  0  0
    3.8974    6.2290   -0.9287 C   0  0  0  0  0  0  0  0  0  0  0  0
    4.5641    7.5093   -1.3516 C   0  0  0  0  0  0  0  0  0  0  0  0
    4.7011    5.0672   -0.8915 C   0  0  0  0  0  0  0  0  0  0  0  0
    4.0207    0.4463   -1.1486 C   0  0  0  0  0  0  0  0  0  0  0  0
    3.2554   -0.6840   -0.8510 C   0  0  0  0  0  0  0  0  0  0  0  0
    2.8300   -0.9410    0.4603 C   0  0  0  0  0  0  0  0  0  0  0  0
    2.1139   -2.1191    0.7187 N   0  0  0  0  0  0  0  0  0  0  0  0
    3.3002    0.4168    3.5975 H   0  0  0  0  0  0  0  0  0  0  0  0
    3.2191   -1.3235    3.2859 H   0  0  0  0  0  0  0  0  0  0  0  0
    1.7916   -0.2801    3.0134 H   0  0  0  0  0  0  0  0  0  0  0  0
    4.4549    1.6354    2.0031 H   0  0  0  0  0  0  0  0  0  0  0  0
    5.6536    2.5231   -1.3962 H   0  0  0  0  0  0  0  0  0  0  0  0
    5.8733    2.8178    0.3233 H   0  0  0  0  0  0  0  0  0  0  0  0
    2.3507    2.8140    0.0851 H   0  0  0  0  0  0  0  0  0  0  0  0
    0.9909    4.8065    0.1207 H   0  0  0  0  0  0  0  0  0  0  0  0
    0.7403    7.0743   -0.3767 H   0  0  0  0  0  0  0  0  0  0  0  0
    1.9613    8.0679   -0.9620 H   0  0  0  0  0  0  0  0  0  0  0  0
    3.8813    8.3613   -1.4017 H   0  0  0  0  0  0  0  0  0  0  0  0
    4.9887    7.3851   -2.3577 H   0  0  0  0  0  0  0  0  0  0  0  0
    5.3664    7.7650   -0.6528 H   0  0  0  0  0  0  0  0  0  0  0  0
    5.7595    5.1485   -1.1386 H   0  0  0  0  0  0  0  0  0  0  0  0
    4.2626    0.6688   -2.1844 H   0  0  0  0  0  0  0  0  0  0  0  0
    2.9575   -1.3433   -1.6585 H   0  0  0  0  0  0  0  0  0  0  0  0
    1.5660   -2.4374   -0.0746 H   0  0  0  0  0  0  0  0  0  0  0  0
    1.5691   -2.0945    1.5700 H   0  0  0  0  0  0  0  0  0  0  0  0
  1  2  1  0  0  0  0
  1 18  1  0  0  0  0
  1 19  1  0  0  0  0
  1 20  1  0  0  0  0
  2  3  2  0  0  0  0
  2 16  1  0  0  0  0
  3  4  1  0  0  0  0
  3 21  1  0  0  0  0
  4  5  1  0  0  0  0
  4 14  2  0  0  0  0
  5  6  1  0  0  0  0
  5 22  1  0  0  0  0
  5 23  1  0  0  0  0
  6  7  2  0  0  0  0
  6 13  1  0  0  0  0
  7  8  1  0  0  0  0
  7 24  1  0  0  0  0
  8  9  2  0  0  0  0
  8 25  1  0  0  0  0
  9 10  1  0  0  0  0
  9 11  1  0  0  0  0
 10 26  1  0  0  0  0
 10 27  1  0  0  0  0
 11 12  1  0  0  0  0
 11 13  2  0  0  0  0
 12 28  1  0  0  0  0
 12 29  1  0  0  0  0
 12 30  1  0  0  0  0
 13 31  1  0  0  0  0
 14 15  1  0  0  0  0
 14 32  1  0  0  0  0
 15 16  2  0  0  0  0
 15 33  1  0  0  0  0
 16 17  1  0  0  0  0
 17 34  1  0  0  0  0
 17 35  1  0  0  0  0
M  END
$$$$

 OpenBabel12201709243D

 24 26  0  0  0  0  0  0  0  0999 V2000
    0.8530   -0.0767    0.0339 O   0  0  0  0  0  0  0  0  0  0  0  0
    2.0787   -0.0744    0.0343 C   0  0  0  0  0  0  0  0  0  0  0  0
    2.8236    1.1997    0.0347 C   0  0  0  0  0  0  0  0  0  0  0  0
    2.1200    2.4111    0.0349 C   0  0  0  0  0  0  0  0  0  0  0  0
    2.8137    3.6219    0.0355 C   0  0  0  0  0  0  0  0  0  0  0  0
    4.2082    3.6266    0.0358 C   0  0  0  0  0  0  0  0  0  0  0  0
    4.9118    2.4204    0.0355 C   0  0  0  0  0  0  0  0  0  0  0  0
    4.2175    1.2034    0.0349 C   0  0  0  0  0  0  0  0  0  0  0  0
    4.9686   -0.0689    0.0348 C   0  0  0  0  0  0  0  0  0  0  0  0
    6.1941   -0.0666    0.0347 O   0  0  0  0  0  0  0  0  0  0  0  0
    4.2224   -1.3441    0.0347 C   0  0  0  0  0  0  0  0  0  0  0  0
    4.9211   -2.5584    0.0349 C   0  0  0  0  0  0  0  0  0  0  0  0
    4.2221   -3.7673    0.0351 C   0  0  0  0  0  0  0  0  0  0  0  0
    2.8276   -3.7678    0.0350 C   0  0  0  0  0  0  0  0  0  0  0  0
    2.1293   -2.5597    0.0347 C   0  0  0  0  0  0  0  0  0  0  0  0
    2.8284   -1.3457    0.0346 C   0  0  0  0  0  0  0  0  0  0  0  0
    1.0312    2.4147    0.0347 H   0  0  0  0  0  0  0  0  0  0  0  0
    2.2651    4.5613    0.0359 H   0  0  0  0  0  0  0  0  0  0  0  0
    4.7489    4.5706    0.0364 H   0  0  0  0  0  0  0  0  0  0  0  0
    6.0005    2.4332    0.0357 H   0  0  0  0  0  0  0  0  0  0  0  0
    6.0098   -2.5672    0.0350 H   0  0  0  0  0  0  0  0  0  0  0  0
    4.7662   -4.7093    0.0353 H   0  0  0  0  0  0  0  0  0  0  0  0
    2.2824   -4.7092    0.0352 H   0  0  0  0  0  0  0  0  0  0  0  0
    1.0406   -2.5673    0.0346 H   0  0  0  0  0  0  0  0  0  0  0  0
  1  2  2  0  0  0  0
  2  3  1  0  0  0  0
  2 16  1  0  0  0  0
  3  4  2  0  0  0  0
  3  8  1  0  0  0  0
  4  5  1  0  0  0  0
  4 17  1  0  0  0  0
  5  6  2  0  0  0  0
  5 18  1  0  0  0  0
  6  7  1  0  0  0  0
  6 19  1  0  0  0  0
  7  8  2  0  0  0  0
  7 20  1  0  0  0  0
  8  9  1  0  0  0  0
  9 10  2  0  0  0  0
  9 11  1  0  0  0  0
 11 12  2  0  0  0  0
 11 16  1  0  0  0  0
 12 13  1  0  0  0  0
 12 21  1  0  0  0  0
 13 14  2  0  0  0  0
 13 22  1  0  0  0  0
 14 15  1  0  0  0  0
 14 23  1  0  0  0  0
 15 16  2  0  0  0  0
 15 24  1  0  0  0  0
M  END
$$$$

 OpenBabel12201709243D

 31 33  0  0  0  0  0  0  0  0999 V2000
    0.7864   -0.0790    0.0611 O   0  0  0  0  0  0  0  0  0  0  0  0
    2.1584   -0.0368    0.0808 C   0  0  0  0  0  0  0  0  0  0  0  0
    2.8583   -1.2414    0.1227 C   0  0  0  0  0  0  0  0  0  0  0  0
    4.2491   -1.2337    0.0727 C   0  0  0  0  0  0  0  0  0  0  0  0
    4.9575   -0.0295   -0.0077 C   0  0  0  0  0  0  0  0  0  0  0  0
    6.3598   -0.0493   -0.0939 C   0  0  0  0  0  0  0  0  0  0  0  0
    7.0896    1.1333   -0.1774 C   0  0  0  0  0  0  0  0  0  0  0  0
    6.4246    2.3528   -0.1587 C   0  0  0  0  0  0  0  0  0  0  0  0
    5.0283    2.3883   -0.0788 C   0  0  0  0  0  0  0  0  0  0  0  0
    4.2563    1.2061   -0.0141 C   0  0  0  0  0  0  0  0  0  0  0  0
    2.8296    1.2041    0.0237 C   0  0  0  0  0  0  0  0  0  0  0  0
    2.1276    2.4316   -0.1254 N   0  0  0  0  0  0  0  0  0  0  0  0
    1.2385    2.5855    0.7418 N   0  0  0  0  0  0  0  0  0  0  0  0
    0.4941    3.7636    0.5152 C   0  0  0  0  0  0  0  0  0  0  0  0
   -0.9060    3.7070    0.5439 C   0  0  0  0  0  0  0  0  0  0  0  0
   -1.6763    4.8645    0.3828 C   0  0  0  0  0  0  0  0  0  0  0  0
   -1.0523    6.0975    0.1943 C   0  0  0  0  0  0  0  0  0  0  0  0
    0.3389    6.1729    0.1607 C   0  0  0  0  0  0  0  0  0  0  0  0
    1.1040    5.0121    0.3256 C   0  0  0  0  0  0  0  0  0  0  0  0
    0.4921   -1.0013    0.1114 H   0  0  0  0  0  0  0  0  0  0  0  0
    2.3391   -2.1932    0.1705 H   0  0  0  0  0  0  0  0  0  0  0  0
    4.7785   -2.1851    0.0824 H   0  0  0  0  0  0  0  0  0  0  0  0
    6.8989   -0.9960   -0.1071 H   0  0  0  0  0  0  0  0  0  0  0  0
    8.1734    1.1015   -0.2561 H   0  0  0  0  0  0  0  0  0  0  0  0
    6.9880    3.2799   -0.2152 H   0  0  0  0  0  0  0  0  0  0  0  0
    4.5385    3.3602   -0.0655 H   0  0  0  0  0  0  0  0  0  0  0  0
   -1.4003    2.7501    0.6933 H   0  0  0  0  0  0  0  0  0  0  0  0
   -2.7616    4.8055    0.4105 H   0  0  0  0  0  0  0  0  0  0  0  0
   -1.6481    6.9978    0.0733 H   0  0  0  0  0  0  0  0  0  0  0  0
    0.8320    7.1285    0.0149 H   0  0  0  0  0  0  0  0  0  0  0  0
    2.1884    5.0804    0.3107 H   0  0  0  0  0  0  0  0  0  0  0  0
  1  2  1  0  0  0  0
  1 20  1  0  0  0  0
  2  3  2  0  0  0  0
  2 11  1  0  0  0  0
  3  4  1  0  0  0  0
  3 21  1  0  0  0  0
  4  5  2  0  0  0  0
  4 22  1  0  0  0  0
  5  6  1  0  0  0  0
  5 10  1  0  0  0  0
  6  7  2  0  0  0  0
  6 23  1  0  0  0  0
  7  8  1  0  0  0  0
  7 24  1  0  0  0  0
  8  9  2  0  0  0  0
  8 25  1  0  0  0  0
  9 10  1  0  0  0  0
  9 26  1  0  0  0  0
 10 11  2  0  0  0  0
 11 12  1  0  0  0  0
 12 13  2  3  0  0  0
 13 14  1  0  0  0  0
 14 15  2  0  0  0  0
 14 19  1  0  0  0  0
 15 16  1  0  0  0  0
 15 27  1  0  0  0  0
 16 17  2  0  0  0  0
 16 28  1  0  0  0  0
 17 18  1  0  0  0  0
 17 29  1  0  0  0  0
 18 19  2  0  0  0  0
 18 30  1  0  0  0  0
 19 31  1  0  0  0  0
M  END
$$$$

 OpenBabel12201709243D

 15 16  0  0  0  0  0  0  0  0999 V2000
    1.0408    0.3250    0.0439 O   0  0  0  0  0  0  0  0  0  0  0  0
    2.2305    0.0852    0.0444 C   0  0  0  0  0  0  0  0  0  0  0  0
    3.2572    0.9781    0.0454 O   0  0  0  0  0  0  0  0  0  0  0  0
    4.4725    0.3660    0.0459 C   0  0  0  0  0  0  0  0  0  0  0  0
    5.5663    0.8919    0.0467 O   0  0  0  0  0  0  0  0  0  0  0  0
    4.2005   -1.0537    0.0452 C   0  0  0  0  0  0  0  0  0  0  0  0
    5.0738   -2.1263    0.0454 C   0  0  0  0  0  0  0  0  0  0  0  0
    4.5164   -3.4085    0.0445 C   0  0  0  0  0  0  0  0  0  0  0  0
    3.1188   -3.5835    0.0434 C   0  0  0  0  0  0  0  0  0  0  0  0
    2.2624   -2.4784    0.0433 C   0  0  0  0  0  0  0  0  0  0  0  0
    2.8442   -1.2236    0.0442 C   0  0  0  0  0  0  0  0  0  0  0  0
    6.1492   -1.9760    0.0462 H   0  0  0  0  0  0  0  0  0  0  0  0
    5.1672   -4.2815    0.0446 H   0  0  0  0  0  0  0  0  0  0  0  0
    2.7033   -4.5901    0.0427 H   0  0  0  0  0  0  0  0  0  0  0  0
    1.1831   -2.5979    0.0425 H   0  0  0  0  0  0  0  0  0  0  0  0
  1  2  2  0  0  0  0
  2  3  1  0  0  0  0
  2 11  1  0  0  0  0
  3  4  1  0  0  0  0
  4  5  2  0  0  0  0
  4  6  1  0  0  0  0
  6  7  2  0  0  0  0
  6 11  1  0  0  0  0
  7  8  1  0  0  0  0
  7 12  1  0  0  0  0
  8  9  2  0  0  0  0
  8 13  1  0  0  0  0
  9 10  1  0  0  0  0
  9 14  1  0  0  0  0
 10 11  2  0  0  0  0
 10 15  1  0  0  0  0
M  END
$$$$

 OpenBabel12201709243D

 43 44  0  0  0  0  0  0  0  0999 V2000
    3.1378   -2.7140   -1.0092 C   0  0  0  0  0  0  0  0  0  0  0  0
    3.4136   -2.2570    0.4168 C   0  0  0  0  0  0  0  0  0  0  0  0
    4.0630   -0.8734    0.4460 C   0  0  0  0  0  0  0  0  0  0  0  0
    4.2287   -0.3232    1.8615 C   0  0  0  0  0  0  0  0  0  0  0  0
    5.0364   -1.1529    2.7144 O   0  0  0  0  0  0  0  0  0  0  0  0
    6.3292   -0.7664    2.8522 C   0  0  0  0  0  0  0  0  0  0  0  0
    6.9032    0.0972    2.2063 O   0  0  0  0  0  0  0  0  0  0  0  0
    6.8778   -1.3176    4.1155 C   0  0  0  0  0  0  0  0  0  0  0  0
    7.4841   -0.3773    4.9723 C   0  0  0  0  0  0  0  0  0  0  0  0
    7.9761   -0.7595    6.2215 C   0  0  0  0  0  0  0  0  0  0  0  0
    7.8763   -2.0867    6.6257 C   0  0  0  0  0  0  0  0  0  0  0  0
    7.2919   -3.0310    5.7788 C   0  0  0  0  0  0  0  0  0  0  0  0
    6.7872   -2.6584    4.5165 C   0  0  0  0  0  0  0  0  0  0  0  0
    6.2542   -3.7136    3.6193 C   0  0  0  0  0  0  0  0  0  0  0  0
    6.3673   -3.6932    2.4074 O   0  0  0  0  0  0  0  0  0  0  0  0
    5.6576   -4.6782    4.3650 O   0  0  0  0  0  0  0  0  0  0  0  0
    5.0575   -5.7647    3.6475 C   0  0  0  0  0  0  0  0  0  0  0  0
    5.7160   -7.0708    4.0259 C   0  0  0  0  0  0  0  0  0  0  0  0
    5.2273   -7.8475    5.0864 C   0  0  0  0  0  0  0  0  0  0  0  0
    5.8111   -9.0809    5.3922 C   0  0  0  0  0  0  0  0  0  0  0  0
    6.8949   -9.5442    4.6488 C   0  0  0  0  0  0  0  0  0  0  0  0
    7.4054   -8.7690    3.6103 C   0  0  0  0  0  0  0  0  0  0  0  0
    6.8243   -7.5373    3.3042 C   0  0  0  0  0  0  0  0  0  0  0  0
    2.6952   -3.7152   -1.0078 H   0  0  0  0  0  0  0  0  0  0  0  0
    4.0599   -2.7505   -1.5979 H   0  0  0  0  0  0  0  0  0  0  0  0
    2.4377   -2.0375   -1.5109 H   0  0  0  0  0  0  0  0  0  0  0  0
    4.0657   -2.9867    0.9075 H   0  0  0  0  0  0  0  0  0  0  0  0
    2.4683   -2.2378    0.9714 H   0  0  0  0  0  0  0  0  0  0  0  0
    3.4397   -0.1711   -0.1231 H   0  0  0  0  0  0  0  0  0  0  0  0
    5.0376   -0.9212   -0.0531 H   0  0  0  0  0  0  0  0  0  0  0  0
    3.2480   -0.2538    2.3440 H   0  0  0  0  0  0  0  0  0  0  0  0
    4.6201    0.7009    1.8182 H   0  0  0  0  0  0  0  0  0  0  0  0
    7.5599    0.6667    4.6693 H   0  0  0  0  0  0  0  0  0  0  0  0
    8.4350   -0.0207    6.8748 H   0  0  0  0  0  0  0  0  0  0  0  0
    8.2620   -2.3903    7.5962 H   0  0  0  0  0  0  0  0  0  0  0  0
    7.2502   -4.0684    6.1077 H   0  0  0  0  0  0  0  0  0  0  0  0
    5.0816   -5.6330    2.5595 H   0  0  0  0  0  0  0  0  0  0  0  0
    3.9983   -5.7944    3.9285 H   0  0  0  0  0  0  0  0  0  0  0  0
    4.3771   -7.5067    5.6728 H   0  0  0  0  0  0  0  0  0  0  0  0
    5.4148   -9.6846    6.2048 H   0  0  0  0  0  0  0  0  0  0  0  0
    7.3405  -10.5089    4.8782 H   0  0  0  0  0  0  0  0  0  0  0  0
    8.2515   -9.1291    3.0297 H   0  0  0  0  0  0  0  0  0  0  0  0
    7.2279   -6.9466    2.4855 H   0  0  0  0  0  0  0  0  0  0  0  0
  1  2  1  0  0  0  0
  1 24  1  0  0  0  0
  1 25  1  0  0  0  0
  1 26  1  0  0  0  0
  2  3  1  0  0  0  0
  2 27  1  0  0  0  0
  2 28  1  0  0  0  0
  3  4  1  0  0  0  0
  3 29  1  0  0  0  0
  3 30  1  0  0  0  0
  4  5  1  0  0  0  0
  4 31  1  0  0  0  0
  4 32  1  0  0  0  0
  5  6  1  0  0  0  0
  6  7  2  0  0  0  0
  6  8  1  0  0  0  0
  8  9  2  0  0  0  0
  8 13  1  0  0  0  0
  9 10  1  0  0  0  0
  9 33  1  0  0  0  0
 10 11  2  0  0  0  0
 10 34  1  0  0  0  0
 11 12  1  0  0  0  0
 11 35  1  0  0  0  0
 12 13  2  0  0  0  0
 12 36  1  0  0  0  0
 13 14  1  0  0  0  0
 14 15  2  0  0  0  0
 14 16  1  0  0  0  0
 16 17  1  0  0  0  0
 17 18  1  0  0  0  0
 17 37  1  0  0  0  0
 17 38  1  0  0  0  0
 18 19  2  0  0  0  0
 18 23  1  0  0  0  0
 19 20  1  0  0  0  0
 19 39  1  0  0  0  0
 20 21  2  0  0  0  0
 20 40  1  0  0  0  0
 21 22  1  0  0  0  0
 21 41  1  0  0  0  0
 22 23  2  0  0  0  0
 22 42  1  0  0  0  0
 23 43  1  0  0  0  0
M  END
$$$$

 OpenBabel12201709243D

 25 26  0  0  0  0  0  0  0  0999 V2000
    2.3158    0.1134   -0.9614 O   0  0  0  0  0  0  0  0  0  0  0  0
    2.2571    0.3007    0.2600 N   0  0  0  0  0  0  0  0  0  0  0  0
    2.9369   -0.6361    0.9929 N   0  0  0  0  0  0  0  0  0  0  0  0
    2.1841   -1.3830    1.9781 C   0  0  0  0  0  0  0  0  0  0  0  0
    2.6014   -2.6643    2.3959 C   0  0  0  0  0  0  0  0  0  0  0  0
    1.9048   -3.3737    3.3794 C   0  0  0  0  0  0  0  0  0  0  0  0
    0.7553   -2.8331    3.9470 C   0  0  0  0  0  0  0  0  0  0  0  0
    0.2964   -1.5889    3.5224 C   0  0  0  0  0  0  0  0  0  0  0  0
    0.9984   -0.8760    2.5461 C   0  0  0  0  0  0  0  0  0  0  0  0
    4.3881   -0.5872    1.0176 C   0  0  0  0  0  0  0  0  0  0  0  0
    5.1087   -0.8158    2.2087 C   0  0  0  0  0  0  0  0  0  0  0  0
    6.5053   -0.7501    2.2457 C   0  0  0  0  0  0  0  0  0  0  0  0
    7.2207   -0.4342    1.0970 C   0  0  0  0  0  0  0  0  0  0  0  0
    6.5406   -0.1849   -0.0889 C   0  0  0  0  0  0  0  0  0  0  0  0
    5.1422   -0.2611   -0.1271 C   0  0  0  0  0  0  0  0  0  0  0  0
    3.4810   -3.1253    1.9517 H   0  0  0  0  0  0  0  0  0  0  0  0
    2.2611   -4.3503    3.7000 H   0  0  0  0  0  0  0  0  0  0  0  0
    0.2141   -3.3815    4.7132 H   0  0  0  0  0  0  0  0  0  0  0  0
   -0.6095   -1.1690    3.9532 H   0  0  0  0  0  0  0  0  0  0  0  0
    0.6158    0.0995    2.2534 H   0  0  0  0  0  0  0  0  0  0  0  0
    4.5915   -1.0215    3.1422 H   0  0  0  0  0  0  0  0  0  0  0  0
    7.0304   -0.9382    3.1787 H   0  0  0  0  0  0  0  0  0  0  0  0
    8.3056   -0.3729    1.1274 H   0  0  0  0  0  0  0  0  0  0  0  0
    7.0918    0.0749   -0.9893 H   0  0  0  0  0  0  0  0  0  0  0  0
    4.6587   -0.0692   -1.0809 H   0  0  0  0  0  0  0  0  0  0  0  0
  1  2  2  0  0  0  0
  2  3  1  0  0  0  0
  3  4  1  0  0  0  0
  3 10  1  0  0  0  0
  4  5  2  0  0  0  0
  4  9  1  0  0  0  0
  5  6  1  0  0  0  0
  5 16  1  0  0  0  0
  6  7  2  0  0  0  0
  6 17  1  0  0  0  0
  7  8  1  0  0  0  0
  7 18  1  0  0  0  0
  8  9  2  0  0  0  0
  8 19  1  0  0  0  0
  9 20  1  0  0  0  0
 10 11  2  0  0  0  0
 10 15  1  0  0  0  0
 11 12  1  0  0  0  0
 11 21  1  0  0  0  0
 12 13  2  0  0  0  0
 12 22  1  0  0  0  0
 13 14  1  0  0  0  0
 13 23  1  0  0  0  0
 14 15  2  0  0  0  0
 14 24  1  0  0  0  0
 15 25  1  0  0  0  0
M  END
$$$$

 OpenBabel12201709243D

 31 32  0  0  0  0  0  0  0  0999 V2000
    6.6652    1.5527   -6.1083 C   0  0  0  0  0  0  0  0  0  0  0  0
    5.9064    0.7236   -5.2503 O   0  0  0  0  0  0  0  0  0  0  0  0
    4.9317    1.4910   -4.0446 P   0  0  0  0  0  0  0  0  0  0  0  0
    3.3567    1.5162   -5.3359 S   0  0  0  0  0  0  0  0  0  0  0  0
    5.0296    0.0870   -3.1716 O   0  0  0  0  0  0  0  0  0  0  0  0
    4.4456   -1.1113   -3.6577 C   0  0  0  0  0  0  0  0  0  0  0  0
    3.7372    2.4315   -2.5670 S   0  0  0  0  0  0  0  0  0  0  0  0
    4.7934    3.6859   -1.8620 C   0  0  0  0  0  0  0  0  0  0  0  0
    5.2287    4.6993   -2.8021 N   0  0  0  0  0  0  0  0  0  0  0  0
    4.3279    5.0933   -3.7537 N   0  0  0  0  0  0  0  0  0  0  0  0
    4.5627    6.0377   -4.5286 N   0  0  0  0  0  0  0  0  0  0  0  0
    5.6833    6.8441   -4.3174 C   0  0  0  0  0  0  0  0  0  0  0  0
    5.8518    7.9834   -5.1086 C   0  0  0  0  0  0  0  0  0  0  0  0
    6.9348    8.8392   -4.9035 C   0  0  0  0  0  0  0  0  0  0  0  0
    7.8725    8.5540   -3.9062 C   0  0  0  0  0  0  0  0  0  0  0  0
    7.7231    7.4146   -3.1219 C   0  0  0  0  0  0  0  0  0  0  0  0
    6.6250    6.5767   -3.3377 C   0  0  0  0  0  0  0  0  0  0  0  0
    6.3844    5.3972   -2.5133 C   0  0  0  0  0  0  0  0  0  0  0  0
    7.1811    5.0844   -1.6329 O   0  0  0  0  0  0  0  0  0  0  0  0
    7.1088    0.9188   -6.8825 H   0  0  0  0  0  0  0  0  0  0  0  0
    7.4668    2.0354   -5.5461 H   0  0  0  0  0  0  0  0  0  0  0  0
    6.0398    2.3053   -6.5946 H   0  0  0  0  0  0  0  0  0  0  0  0
    4.8447   -1.9475   -3.0777 H   0  0  0  0  0  0  0  0  0  0  0  0
    4.6877   -1.2898   -4.7091 H   0  0  0  0  0  0  0  0  0  0  0  0
    3.3615   -1.0831   -3.5222 H   0  0  0  0  0  0  0  0  0  0  0  0
    5.6534    3.2052   -1.3866 H   0  0  0  0  0  0  0  0  0  0  0  0
    4.2339    4.2036   -1.0734 H   0  0  0  0  0  0  0  0  0  0  0  0
    5.1177    8.2168   -5.8769 H   0  0  0  0  0  0  0  0  0  0  0  0
    7.0428    9.7340   -5.5084 H   0  0  0  0  0  0  0  0  0  0  0  0
    8.7119    9.2241   -3.7393 H   0  0  0  0  0  0  0  0  0  0  0  0
    8.4436    7.1883   -2.3386 H   0  0  0  0  0  0  0  0  0  0  0  0
  1  2  1  0  0  0  0
  1 20  1  0  0  0  0
  1 21  1  0  0  0  0
  1 22  1  0  0  0  0
  2  3  1  0  0  0  0
  3  4  2  0  0  0  0
  3  5  1  0  0  0  0
  3  7  1  0  0  0  0
  5  6  1  0  0  0  0
  6 23  1  0  0  0  0
  6 24  1  0  0  0  0
  6 25  1  0  0  0  0
  7  8  1  0  0  0  0
  8  9  1  0  0  0  0
  8 26  1  0  0  0  0
  8 27  1  0  0  0  0
  9 10  1  0  0  0  0
  9 18  1  0  0  0  0
 10 11  2  0  0  0  0
 11 12  1  0  0  0  0
 12 13  2  0  0  0  0
 12 17  1  0  0  0  0
 13 14  1  0  0  0  0
 13 28  1  0  0  0  0
 14 15  2  0  0  0  0
 14 29  1  0  0  0  0
 15 16  1  0  0  0  0
 15 30  1  0  0  0  0
 16 17  2  0  0  0  0
 16 31  1  0  0  0  0
 17 18  1  0  0  0  0
 18 19  2  0  0  0  0
M  END
$$$$

 OpenBabel12201709243D

 21 22  0  0  0  0  0  0  0  0999 V2000
    2.0450   -1.3418   -0.3920 O   0  0  0  0  0  0  0  0  0  0  0  0
    2.4993   -0.1077    0.0180 N   0  0  0  0  0  0  0  0  0  0  0  0
    2.4155    0.1614    1.1986 O   0  0  0  0  0  0  0  0  0  0  0  0
    3.1269    0.7878   -0.9227 C   0  0  0  0  0  0  0  0  0  0  0  0
    3.9335    0.1958   -1.9089 C   0  0  0  0  0  0  0  0  0  0  0  0
    4.5420    0.9867   -2.8743 C   0  0  0  0  0  0  0  0  0  0  0  0
    4.3350    2.3639   -2.8693 C   0  0  0  0  0  0  0  0  0  0  0  0
    3.5257    2.9757   -1.8978 C   0  0  0  0  0  0  0  0  0  0  0  0
    3.3218    4.3655   -1.9376 C   0  0  0  0  0  0  0  0  0  0  0  0
    2.5233    5.0035   -0.9911 C   0  0  0  0  0  0  0  0  0  0  0  0
    1.9221    4.2599    0.0139 C   0  0  0  0  0  0  0  0  0  0  0  0
    2.1085    2.8760    0.0633 C   0  0  0  0  0  0  0  0  0  0  0  0
    2.9090    2.1934   -0.8877 C   0  0  0  0  0  0  0  0  0  0  0  0
    1.7205   -1.6501    0.4704 H   0  0  0  0  0  0  0  0  0  0  0  0
    4.0893   -0.8804   -1.9258 H   0  0  0  0  0  0  0  0  0  0  0  0
    5.1705    0.5330   -3.6364 H   0  0  0  0  0  0  0  0  0  0  0  0
    4.8127    2.9640   -3.6416 H   0  0  0  0  0  0  0  0  0  0  0  0
    3.7835    4.9669   -2.7180 H   0  0  0  0  0  0  0  0  0  0  0  0
    2.3730    6.0787   -1.0397 H   0  0  0  0  0  0  0  0  0  0  0  0
    1.3055    4.7502    0.7627 H   0  0  0  0  0  0  0  0  0  0  0  0
    1.6167    2.3375    0.8704 H   0  0  0  0  0  0  0  0  0  0  0  0
  1  2  1  0  0  0  0
  1 14  1  0  0  0  0
  2  3  2  0  0  0  0
  2  4  1  0  0  0  0
  4  5  2  0  0  0  0
  4 13  1  0  0  0  0
  5  6  1  0  0  0  0
  5 15  1  0  0  0  0
  6  7  2  0  0  0  0
  6 16  1  0  0  0  0
  7  8  1  0  0  0  0
  7 17  1  0  0  0  0
  8  9  2  0  0  0  0
  8 13  1  0  0  0  0
  9 10  1  0  0  0  0
  9 18  1  0  0  0  0
 10 11  2  0  0  0  0
 10 19  1  0  0  0  0
 11 12  1  0  0  0  0
 11 20  1  0  0  0  0
 12 13  2  0  0  0  0
 12 21  1  0  0  0  0
M  END
$$$$

 OpenBabel12201709243D

 22 24  0  0  0  0  0  0  0  0999 V2000
    3.4348   -0.2162   -0.0001 C   0  0  0  0  0  0  0  0  0  0  0  0
    3.0538    1.1236   -0.0001 C   0  0  0  0  0  0  0  0  0  0  0  0
    1.7002    1.4798   -0.0001 C   0  0  0  0  0  0  0  0  0  0  0  0
    0.7163    0.4692   -0.0001 C   0  0  0  0  0  0  0  0  0  0  0  0
    1.1306   -0.8622   -0.0002 C   0  0  0  0  0  0  0  0  0  0  0  0
    2.4796   -1.2370   -0.0002 C   0  0  0  0  0  0  0  0  0  0  0  0
   -0.0053   -1.6371   -0.0002 N   0  0  0  0  0  0  0  0  0  0  0  0
   -0.0079   -2.6459   -0.0002 H   0  0  0  0  0  0  0  0  0  0  0  0
   -1.1370   -0.8561   -0.0001 C   0  0  0  0  0  0  0  0  0  0  0  0
   -2.4880   -1.2237   -0.0000 C   0  0  0  0  0  0  0  0  0  0  0  0
   -3.4377   -0.1978    0.0001 C   0  0  0  0  0  0  0  0  0  0  0  0
   -3.0496    1.1399    0.0001 C   0  0  0  0  0  0  0  0  0  0  0  0
   -1.6941    1.4889    0.0000 C   0  0  0  0  0  0  0  0  0  0  0  0
   -0.7156    0.4730   -0.0001 C   0  0  0  0  0  0  0  0  0  0  0  0
    4.4917   -0.4733   -0.0001 H   0  0  0  0  0  0  0  0  0  0  0  0
    3.8130    1.9017   -0.0001 H   0  0  0  0  0  0  0  0  0  0  0  0
    1.4116    2.5265   -0.0001 H   0  0  0  0  0  0  0  0  0  0  0  0
    2.7804   -2.2795   -0.0002 H   0  0  0  0  0  0  0  0  0  0  0  0
   -2.7943   -2.2646   -0.0000 H   0  0  0  0  0  0  0  0  0  0  0  0
   -4.4959   -0.4493    0.0002 H   0  0  0  0  0  0  0  0  0  0  0  0
   -3.8046    1.9221    0.0002 H   0  0  0  0  0  0  0  0  0  0  0  0
   -1.3999    2.5340    0.0000 H   0  0  0  0  0  0  0  0  0  0  0  0
  1  2  2  0  0  0  0
  1  6  1  0  0  0  0
  1 15  1  0  0  0  0
  2  3  1  0  0  0  0
  2 16  1  0  0  0  0
  3  4  2  0  0  0  0
  3 17  1  0  0  0  0
  4  5  1  0  0  0  0
  4 14  1  0  0  0  0
  5  6  2  0  0  0  0
  5  7  1  0  0  0  0
  6 18  1  0  0  0  0
  7  8  1  0  0  0  0
  7  9  1  0  0  0  0
  9 10  2  0  0  0  0
  9 14  1  0  0  0  0
 10 11  1  0  0  0  0
 10 19  1  0  0  0  0
 11 12  2  0  0  0  0
 11 20  1  0  0  0  0
 12 13  1  0  0  0  0
 12 21  1  0  0  0  0
 13 14  2  0  0  0  0
 13 22  1  0  0  0  0
M  END
$$$$

 OpenBabel12201709243D

 25 26  0  0  0  0  0  0  0  0999 V2000
    3.2782   -0.8417   -2.1655 N   0  0  0  0  0  0  0  0  0  0  0  0
    2.5428   -1.1569   -1.0636 C   0  0  0  0  0  0  0  0  0  0  0  0
    1.3509   -1.4336   -1.1895 O   0  0  0  0  0  0  0  0  0  0  0  0
    3.2275   -1.1662    0.2958 C   0  0  0  0  0  0  0  0  0  0  0  0
    4.7202   -0.8889    0.2829 C   0  0  0  0  0  0  0  0  0  0  0  0
    5.5794   -1.9955    0.1526 C   0  0  0  0  0  0  0  0  0  0  0  0
    6.9531   -1.8218    0.0389 C   0  0  0  0  0  0  0  0  0  0  0  0
    7.4874   -0.5377    0.0310 C   0  0  0  0  0  0  0  0  0  0  0  0
    6.6620    0.5889    0.1543 C   0  0  0  0  0  0  0  0  0  0  0  0
    7.2243    1.8750    0.1194 C   0  0  0  0  0  0  0  0  0  0  0  0
    6.4291    3.0113    0.2498 C   0  0  0  0  0  0  0  0  0  0  0  0
    5.0598    2.8740    0.4290 C   0  0  0  0  0  0  0  0  0  0  0  0
    4.4824    1.6018    0.4509 C   0  0  0  0  0  0  0  0  0  0  0  0
    5.2595    0.4290    0.3036 C   0  0  0  0  0  0  0  0  0  0  0  0
    2.8007   -0.8080   -3.0557 H   0  0  0  0  0  0  0  0  0  0  0  0
    4.2191   -0.4722   -2.1123 H   0  0  0  0  0  0  0  0  0  0  0  0
    3.0530   -2.1570    0.7357 H   0  0  0  0  0  0  0  0  0  0  0  0
    2.7072   -0.4595    0.9490 H   0  0  0  0  0  0  0  0  0  0  0  0
    5.1750   -3.0066    0.1287 H   0  0  0  0  0  0  0  0  0  0  0  0
    7.6071   -2.6841   -0.0577 H   0  0  0  0  0  0  0  0  0  0  0  0
    8.5645   -0.4220   -0.0722 H   0  0  0  0  0  0  0  0  0  0  0  0
    8.2968    2.0027   -0.0156 H   0  0  0  0  0  0  0  0  0  0  0  0
    6.8803    3.9993    0.2157 H   0  0  0  0  0  0  0  0  0  0  0  0
    4.4355    3.7559    0.5503 H   0  0  0  0  0  0  0  0  0  0  0  0
    3.4063    1.5477    0.5948 H   0  0  0  0  0  0  0  0  0  0  0  0
  1  2  1  0  0  0  0
  1 15  1  0  0  0  0
  1 16  1  0  0  0  0
  2  3  2  0  0  0  0
  2  4  1  0  0  0  0
  4  5  1  0  0  0  0
  4 17  1  0  0  0  0
  4 18  1  0  0  0  0
  5  6  2  0  0  0  0
  5 14  1  0  0  0  0
  6  7  1  0  0  0  0
  6 19  1  0  0  0  0
  7  8  2  0  0  0  0
  7 20  1  0  0  0  0
  8  9  1  0  0  0  0
  8 21  1  0  0  0  0
  9 10  2  0  0  0  0
  9 14  1  0  0  0  0
 10 11  1  0  0  0  0
 10 22  1  0  0  0  0
 11 12  2  0  0  0  0
 11 23  1  0  0  0  0
 12 13  1  0  0  0  0
 12 24  1  0  0  0  0
 13 14  2  0  0  0  0
 13 25  1  0  0  0  0
M  END
$$$$

 OpenBabel12201709243D

 24 25  0  0  0  0  0  0  0  0999 V2000
    2.9051   -0.0571   -1.4795 O   0  0  0  0  0  0  0  0  0  0  0  0
    2.3581   -0.7948   -0.4892 C   0  0  0  0  0  0  0  0  0  0  0  0
    1.2877   -1.3715   -0.6515 O   0  0  0  0  0  0  0  0  0  0  0  0
    3.0875   -0.8099    0.8399 C   0  0  0  0  0  0  0  0  0  0  0  0
    4.5880   -0.6081    0.7570 C   0  0  0  0  0  0  0  0  0  0  0  0
    5.3900   -1.7557    0.6155 C   0  0  0  0  0  0  0  0  0  0  0  0
    6.7624   -1.6446    0.4331 C   0  0  0  0  0  0  0  0  0  0  0  0
    7.3514   -0.3859    0.3632 C   0  0  0  0  0  0  0  0  0  0  0  0
    6.5814    0.7786    0.4913 C   0  0  0  0  0  0  0  0  0  0  0  0
    7.1879    2.0393    0.3704 C   0  0  0  0  0  0  0  0  0  0  0  0
    6.4410    3.2104    0.4796 C   0  0  0  0  0  0  0  0  0  0  0  0
    5.0794    3.1372    0.7361 C   0  0  0  0  0  0  0  0  0  0  0  0
    4.4602    1.8908    0.8591 C   0  0  0  0  0  0  0  0  0  0  0  0
    5.1856    0.6841    0.7212 C   0  0  0  0  0  0  0  0  0  0  0  0
    3.7651    0.3564   -1.2683 H   0  0  0  0  0  0  0  0  0  0  0  0
    2.8944   -1.7869    1.3042 H   0  0  0  0  0  0  0  0  0  0  0  0
    2.6240   -0.0723    1.5019 H   0  0  0  0  0  0  0  0  0  0  0  0
    4.9433   -2.7491    0.6354 H   0  0  0  0  0  0  0  0  0  0  0  0
    7.3728   -2.5383    0.3269 H   0  0  0  0  0  0  0  0  0  0  0  0
    8.4250   -0.3212    0.1980 H   0  0  0  0  0  0  0  0  0  0  0  0
    8.2553    2.1189    0.1745 H   0  0  0  0  0  0  0  0  0  0  0  0
    6.9240    4.1774    0.3678 H   0  0  0  0  0  0  0  0  0  0  0  0
    4.4932    4.0471    0.8352 H   0  0  0  0  0  0  0  0  0  0  0  0
    3.3924    1.8901    1.0639 H   0  0  0  0  0  0  0  0  0  0  0  0
  1  2  1  0  0  0  0
  1 15  1  0  0  0  0
  2  3  2  0  0  0  0
  2  4  1  0  0  0  0
  4  5  1  0  0  0  0
  4 16  1  0  0  0  0
  4 17  1  0  0  0  0
  5  6  2  0  0  0  0
  5 14  1  0  0  0  0
  6  7  1  0  0  0  0
  6 18  1  0  0  0  0
  7  8  2  0  0  0  0
  7 19  1  0  0  0  0
  8  9  1  0  0  0  0
  8 20  1  0  0  0  0
  9 10  2  0  0  0  0
  9 14  1  0  0  0  0
 10 11  1  0  0  0  0
 10 21  1  0  0  0  0
 11 12  2  0  0  0  0
 11 22  1  0  0  0  0
 12 13  1  0  0  0  0
 12 23  1  0  0  0  0
 13 14  2  0  0  0  0
 13 24  1  0  0  0  0
M  END
$$$$

 OpenBabel12201709243D

 24 25  0  0  0  0  0  0  0  0999 V2000
    1.0441   -1.2788   -1.1489 N   0  0  0  0  0  0  0  0  0  0  0  0
    2.2326   -1.9452   -1.0569 C   0  0  0  0  0  0  0  0  0  0  0  0
    2.4300   -3.3462   -1.9324 S   0  0  0  0  0  0  0  0  0  0  0  0
    3.0883   -1.3468   -0.1667 N   0  0  0  0  0  0  0  0  0  0  0  0
    4.5076   -1.3852   -0.1389 C   0  0  0  0  0  0  0  0  0  0  0  0
    5.2149   -1.5212   -1.3418 C   0  0  0  0  0  0  0  0  0  0  0  0
    6.6029   -1.4968   -1.3653 C   0  0  0  0  0  0  0  0  0  0  0  0
    7.3100   -1.3192   -0.1817 C   0  0  0  0  0  0  0  0  0  0  0  0
    6.6394   -1.1510    1.0367 C   0  0  0  0  0  0  0  0  0  0  0  0
    7.3878   -0.9583    2.2098 C   0  0  0  0  0  0  0  0  0  0  0  0
    6.7618   -0.7895    3.4421 C   0  0  0  0  0  0  0  0  0  0  0  0
    5.3767   -0.8201    3.5160 C   0  0  0  0  0  0  0  0  0  0  0  0
    4.6180   -1.0137    2.3575 C   0  0  0  0  0  0  0  0  0  0  0  0
    5.2199   -1.1773    1.0833 C   0  0  0  0  0  0  0  0  0  0  0  0
    0.4258   -1.6053   -1.8850 H   0  0  0  0  0  0  0  0  0  0  0  0
    1.0597   -0.2753   -1.0209 H   0  0  0  0  0  0  0  0  0  0  0  0
    2.6277   -0.9683    0.6494 H   0  0  0  0  0  0  0  0  0  0  0  0
    4.6965   -1.6035   -2.2929 H   0  0  0  0  0  0  0  0  0  0  0  0
    7.1313   -1.6035   -2.3081 H   0  0  0  0  0  0  0  0  0  0  0  0
    8.3974   -1.3031   -0.2230 H   0  0  0  0  0  0  0  0  0  0  0  0
    8.4751   -0.9392    2.1715 H   0  0  0  0  0  0  0  0  0  0  0  0
    7.3574   -0.6452    4.3394 H   0  0  0  0  0  0  0  0  0  0  0  0
    4.8827   -0.7015    4.4781 H   0  0  0  0  0  0  0  0  0  0  0  0
    3.5381   -1.0547    2.4756 H   0  0  0  0  0  0  0  0  0  0  0  0
  1  2  1  0  0  0  0
  1 15  1  0  0  0  0
  1 16  1  0  0  0  0
  2  3  2  0  0  0  0
  2  4  1  0  0  0  0
  4  5  1  0  0  0  0
  4 17  1  0  0  0  0
  5  6  2  0  0  0  0
  5 14  1  0  0  0  0
  6  7  1  0  0  0  0
  6 18  1  0  0  0  0
  7  8  2  0  0  0  0
  7 19  1  0  0  0  0
  8  9  1  0  0  0  0
  8 20  1  0  0  0  0
  9 10  2  0  0  0  0
  9 14  1  0  0  0  0
 10 11  1  0  0  0  0
 10 21  1  0  0  0  0
 11 12  2  0  0  0  0
 11 22  1  0  0  0  0
 12 13  1  0  0  0  0
 12 23  1  0  0  0  0
 13 14  2  0  0  0  0
 13 24  1  0  0  0  0
M  END
$$$$

 OpenBabel12201709243D

 38 41  0  0  0  0  0  0  0  0999 V2000
    3.7918    0.7139    1.0669 O   0  0  0  0  0  0  0  0  0  0  0  0
    2.8970    0.0544   -0.1003 S   0  0  0  0  0  0  0  0  0  0  0  0
    3.3979   -1.2902   -0.2812 O   0  0  0  0  0  0  0  0  0  0  0  0
    1.5134    0.3050    0.2317 O   0  0  0  0  0  0  0  0  0  0  0  0
    3.2890    1.0099   -1.5411 C   0  0  0  0  0  0  0  0  0  0  0  0
    3.8327    0.3880   -2.6873 C   0  0  0  0  0  0  0  0  0  0  0  0
    4.1440    1.1425   -3.8293 C   0  0  0  0  0  0  0  0  0  0  0  0
    3.8848    2.4978   -3.8057 C   0  0  0  0  0  0  0  0  0  0  0  0
    4.1574    3.4576   -4.7724 N   0  0  0  0  0  0  0  0  0  0  0  0
    3.7172    4.6932   -4.3379 C   0  0  0  0  0  0  0  0  0  0  0  0
    3.6478    5.8814   -4.9435 C   0  0  0  0  0  0  0  0  0  0  0  0
    3.1971    7.1134   -4.5132 N   0  0  0  0  0  0  0  0  0  0  0  0
    3.4065    8.0647   -5.5019 C   0  0  0  0  0  0  0  0  0  0  0  0
    3.0979    9.4099   -5.4957 C   0  0  0  0  0  0  0  0  0  0  0  0
    3.3605   10.1552   -6.6565 C   0  0  0  0  0  0  0  0  0  0  0  0
    3.9223    9.5344   -7.7948 C   0  0  0  0  0  0  0  0  0  0  0  0
    4.2193    8.1709   -7.8144 C   0  0  0  0  0  0  0  0  0  0  0  0
    3.9468    7.4751   -6.6570 C   0  0  0  0  0  0  0  0  0  0  0  0
    4.1256    6.0417   -6.3643 C   0  0  0  0  0  0  0  0  0  0  0  0
    4.5500    5.1888   -7.1170 O   0  0  0  0  0  0  0  0  0  0  0  0
    4.2120   10.4819   -9.2652 S   0  0  0  0  0  0  0  0  0  0  0  0
    3.2266   11.5394   -9.3165 O   0  0  0  0  0  0  0  0  0  0  0  0
    5.6313   10.7366   -9.3404 O   0  0  0  0  0  0  0  0  0  0  0  0
    3.8103    9.4798  -10.4647 O   0  0  0  0  0  0  0  0  0  0  0  0
    3.2216    4.5295   -2.9242 C   0  0  0  0  0  0  0  0  0  0  0  0
    2.7951    5.3828   -2.1716 O   0  0  0  0  0  0  0  0  0  0  0  0
    3.3570    3.0893   -2.6457 C   0  0  0  0  0  0  0  0  0  0  0  0
    3.0450    2.3845   -1.5030 C   0  0  0  0  0  0  0  0  0  0  0  0
    3.6989    0.1614    1.8721 H   0  0  0  0  0  0  0  0  0  0  0  0
    4.0222   -0.6860   -2.6906 H   0  0  0  0  0  0  0  0  0  0  0  0
    4.5758    0.6654   -4.7038 H   0  0  0  0  0  0  0  0  0  0  0  0
    4.3688    3.2951   -5.7500 H   0  0  0  0  0  0  0  0  0  0  0  0
    2.9217    7.2686   -3.5512 H   0  0  0  0  0  0  0  0  0  0  0  0
    2.6611    9.8855   -4.6225 H   0  0  0  0  0  0  0  0  0  0  0  0
    3.1236   11.2188   -6.6738 H   0  0  0  0  0  0  0  0  0  0  0  0
    4.6412    7.6758   -8.6820 H   0  0  0  0  0  0  0  0  0  0  0  0
    3.0152    9.8471  -10.9063 H   0  0  0  0  0  0  0  0  0  0  0  0
    2.6321    2.8793   -0.6306 H   0  0  0  0  0  0  0  0  0  0  0  0
  1  2  1  0  0  0  0
  1 29  1  0  0  0  0
  2  3  2  0  0  0  0
  2  4  2  0  0  0  0
  2  5  1  0  0  0  0
  5  6  2  0  0  0  0
  5 28  1  0  0  0  0
  6  7  1  0  0  0  0
  6 30  1  0  0  0  0
  7  8  2  0  0  0  0
  7 31  1  0  0  0  0
  8  9  1  0  0  0  0
  8 27  1  0  0  0  0
  9 10  1  0  0  0  0
  9 32  1  0  0  0  0
 10 11  2  3  0  0  0
 10 25  1  0  0  0  0
 11 12  1  0  0  0  0
 11 19  1  0  0  0  0
 12 13  1  0  0  0  0
 12 33  1  0  0  0  0
 13 14  2  0  0  0  0
 13 18  1  0  0  0  0
 14 15  1  0  0  0  0
 14 34  1  0  0  0  0
 15 16  2  0  0  0  0
 15 35  1  0  0  0  0
 16 17  1  0  0  0  0
 16 21  1  0  0  0  0
 17 18  2  0  0  0  0
 17 36  1  0  0  0  0
 18 19  1  0  0  0  0
 19 20  2  0  0  0  0
 21 22  2  0  0  0  0
 21 23  2  0  0  0  0
 21 24  1  0  0  0  0
 24 37  1  0  0  0  0
 25 26  2  0  0  0  0
 25 27  1  0  0  0  0
 27 28  2  0  0  0  0
 28 38  1  0  0  0  0
M  END
$$$$

 OpenBabel12201709243D

 13 12  0  0  0  0  0  0  0  0999 V2000
    0.9715    0.0923    0.2996 C   0  0  0  0  0  0  0  0  0  0  0  0
    2.3565    0.0771   -0.0048 O   0  0  0  0  0  0  0  0  0  0  0  0
    2.9331    1.4090   -0.9463 P   0  0  0  0  0  0  0  0  0  0  0  0
    2.6108    2.3805    0.1961 O   0  0  0  0  0  0  0  0  0  0  0  0
    3.5098    2.7409   -1.8878 O   0  0  0  0  0  0  0  0  0  0  0  0
    4.1818    2.3471   -3.0680 C   0  0  0  0  0  0  0  0  0  0  0  0
    0.7286   -0.8191    0.8520 H   0  0  0  0  0  0  0  0  0  0  0  0
    0.3854    0.1166   -0.6222 H   0  0  0  0  0  0  0  0  0  0  0  0
    0.7191    0.9519    0.9256 H   0  0  0  0  0  0  0  0  0  0  0  0
    1.9384    1.1624   -1.9166 H   0  0  0  0  0  0  0  0  0  0  0  0
    4.5139    3.2405   -3.6012 H   0  0  0  0  0  0  0  0  0  0  0  0
    3.5036    1.7784   -3.7096 H   0  0  0  0  0  0  0  0  0  0  0  0
    5.0508    1.7366   -2.8132 H   0  0  0  0  0  0  0  0  0  0  0  0
  1  2  1  0  0  0  0
  1  7  1  0  0  0  0
  1  8  1  0  0  0  0
  1  9  1  0  0  0  0
  2  3  1  0  0  0  0
  3  4  2  0  0  0  0
  3  5  1  0  0  0  0
  3 10  1  0  0  0  0
  5  6  1  0  0  0  0
  6 11  1  0  0  0  0
  6 12  1  0  0  0  0
  6 13  1  0  0  0  0
M  END
$$$$

 OpenBabel12201709243D

 21 20  0  0  0  0  0  0  0  0999 V2000
    0.9810   -0.1317   -0.0894 C   0  0  0  0  0  0  0  0  0  0  0  0
    2.4984   -0.0728   -0.0115 C   0  0  0  0  0  0  0  0  0  0  0  0
    2.9747    0.7493    1.1883 C   0  0  0  0  0  0  0  0  0  0  0  0
    4.5057    0.7980    1.2486 C   0  0  0  0  0  0  0  0  0  0  0  0
    4.9902    1.5415    2.4085 N   0  0  0  0  0  0  0  0  0  0  0  0
    5.1643    2.9310    2.3491 N   0  0  0  0  0  0  0  0  0  0  0  0
    4.9418    3.4248    1.2396 O   0  0  0  0  0  0  0  0  0  0  0  0
    5.1999    0.8705    3.6061 C   0  0  0  0  0  0  0  0  0  0  0  0
    5.0228   -0.3350    3.7627 O   0  0  0  0  0  0  0  0  0  0  0  0
    5.6209    1.6098    4.6731 N   0  0  0  0  0  0  0  0  0  0  0  0
    0.6725   -0.7273   -0.9542 H   0  0  0  0  0  0  0  0  0  0  0  0
    0.5538    0.8703   -0.1959 H   0  0  0  0  0  0  0  0  0  0  0  0
    0.5597   -0.5932    0.8092 H   0  0  0  0  0  0  0  0  0  0  0  0
    2.8893    0.3630   -0.9383 H   0  0  0  0  0  0  0  0  0  0  0  0
    2.8936   -1.0926    0.0594 H   0  0  0  0  0  0  0  0  0  0  0  0
    2.5809    0.3144    2.1150 H   0  0  0  0  0  0  0  0  0  0  0  0
    2.5712    1.7676    1.1220 H   0  0  0  0  0  0  0  0  0  0  0  0
    4.9193    1.2291    0.3298 H   0  0  0  0  0  0  0  0  0  0  0  0
    4.8945   -0.2251    1.3059 H   0  0  0  0  0  0  0  0  0  0  0  0
    6.0291    2.5256    4.5564 H   0  0  0  0  0  0  0  0  0  0  0  0
    5.8734    1.0899    5.5029 H   0  0  0  0  0  0  0  0  0  0  0  0
  1  2  1  0  0  0  0
  1 11  1  0  0  0  0
  1 12  1  0  0  0  0
  1 13  1  0  0  0  0
  2  3  1  0  0  0  0
  2 14  1  0  0  0  0
  2 15  1  0  0  0  0
  3  4  1  0  0  0  0
  3 16  1  0  0  0  0
  3 17  1  0  0  0  0
  4  5  1  0  0  0  0
  4 18  1  0  0  0  0
  4 19  1  0  0  0  0
  5  6  1  0  0  0  0
  5  8  1  0  0  0  0
  6  7  2  0  0  0  0
  8  9  2  0  0  0  0
  8 10  1  0  0  0  0
 10 20  1  0  0  0  0
 10 21  1  0  0  0  0
M  END
$$$$

 OpenBabel12201709243D

 34 35  0  0  0  0  0  0  0  0999 V2000
    4.7276   -1.8676    1.6895 N   0  0  0  0  0  0  0  0  0  0  0  0
    3.9029   -0.8070    1.2648 C   0  0  0  0  0  0  0  0  0  0  0  0
    4.4783    0.4652    1.1292 C   0  0  0  0  0  0  0  0  0  0  0  0
    3.7570    1.5302    0.5855 C   0  0  0  0  0  0  0  0  0  0  0  0
    2.4572    1.3321    0.1299 C   0  0  0  0  0  0  0  0  0  0  0  0
    1.8838    0.0634    0.2041 C   0  0  0  0  0  0  0  0  0  0  0  0
    2.6065   -1.0131    0.7467 C   0  0  0  0  0  0  0  0  0  0  0  0
    1.9808   -2.3614    0.8282 C   0  0  0  0  0  0  0  0  0  0  0  0
    2.2883   -3.1982    1.6644 O   0  0  0  0  0  0  0  0  0  0  0  0
    1.0713   -2.5111   -0.1657 O   0  0  0  0  0  0  0  0  0  0  0  0
    0.4153   -3.7811   -0.2330 C   0  0  0  0  0  0  0  0  0  0  0  0
   -1.0621   -3.5325   -0.2471 C   0  0  0  0  0  0  0  0  0  0  0  0
   -1.8974   -3.9880    0.7011 C   0  0  0  0  0  0  0  0  0  0  0  0
   -3.3582   -3.8191    0.6937 C   0  0  0  0  0  0  0  0  0  0  0  0
   -4.1457   -4.7856    1.3356 C   0  0  0  0  0  0  0  0  0  0  0  0
   -5.5380   -4.6741    1.3598 C   0  0  0  0  0  0  0  0  0  0  0  0
   -6.1602   -3.5868    0.7521 C   0  0  0  0  0  0  0  0  0  0  0  0
   -5.3894   -2.6057    0.1311 C   0  0  0  0  0  0  0  0  0  0  0  0
   -3.9959   -2.7179    0.1076 C   0  0  0  0  0  0  0  0  0  0  0  0
    5.4428   -1.5949    2.3559 H   0  0  0  0  0  0  0  0  0  0  0  0
    4.1814   -2.6686    2.0246 H   0  0  0  0  0  0  0  0  0  0  0  0
    5.5043    0.6339    1.4466 H   0  0  0  0  0  0  0  0  0  0  0  0
    4.2181    2.5118    0.5070 H   0  0  0  0  0  0  0  0  0  0  0  0
    1.8957    2.1607   -0.2944 H   0  0  0  0  0  0  0  0  0  0  0  0
    0.8698   -0.0785   -0.1638 H   0  0  0  0  0  0  0  0  0  0  0  0
    0.7003   -4.4625    0.5760 H   0  0  0  0  0  0  0  0  0  0  0  0
    0.7048   -4.2551   -1.1773 H   0  0  0  0  0  0  0  0  0  0  0  0
   -1.4363   -2.9802   -1.1041 H   0  0  0  0  0  0  0  0  0  0  0  0
   -1.4961   -4.5582    1.5374 H   0  0  0  0  0  0  0  0  0  0  0  0
   -3.6810   -5.6445    1.8149 H   0  0  0  0  0  0  0  0  0  0  0  0
   -6.1347   -5.4379    1.8517 H   0  0  0  0  0  0  0  0  0  0  0  0
   -7.2433   -3.5013    0.7664 H   0  0  0  0  0  0  0  0  0  0  0  0
   -5.8723   -1.7508   -0.3342 H   0  0  0  0  0  0  0  0  0  0  0  0
   -3.4189   -1.9301   -0.3690 H   0  0  0  0  0  0  0  0  0  0  0  0
  1  2  1  0  0  0  0
  1 20  1  0  0  0  0
  1 21  1  0  0  0  0
  2  3  2  0  0  0  0
  2  7  1  0  0  0  0
  3  4  1  0  0  0  0
  3 22  1  0  0  0  0
  4  5  2  0  0  0  0
  4 23  1  0  0  0  0
  5  6  1  0  0  0  0
  5 24  1  0  0  0  0
  6  7  2  0  0  0  0
  6 25  1  0  0  0  0
  7  8  1  0  0  0  0
  8  9  2  0  0  0  0
  8 10  1  0  0  0  0
 10 11  1  0  0  0  0
 11 12  1  0  0  0  0
 11 26  1  0  0  0  0
 11 27  1  0  0  0  0
 12 13  2  3  0  0  0
 12 28  1  0  0  0  0
 13 14  1  0  0  0  0
 13 29  1  0  0  0  0
 14 15  2  0  0  0  0
 14 19  1  0  0  0  0
 15 16  1  0  0  0  0
 15 30  1  0  0  0  0
 16 17  2  0  0  0  0
 16 31  1  0  0  0  0
 17 18  1  0  0  0  0
 17 32  1  0  0  0  0
 18 19  2  0  0  0  0
 18 33  1  0  0  0  0
 19 34  1  0  0  0  0
M  END
$$$$

 OpenBabel12201709243D

 22 23  0  0  0  0  0  0  0  0999 V2000
    2.8955    0.4110   -1.8998 O   0  0  0  0  0  0  0  0  0  0  0  0
    2.3688    1.1721   -0.9141 C   0  0  0  0  0  0  0  0  0  0  0  0
    1.3440    1.8195   -1.0942 O   0  0  0  0  0  0  0  0  0  0  0  0
    3.0574    1.0945    0.4340 C   0  0  0  0  0  0  0  0  0  0  0  0
    4.5371    0.8723    0.3661 C   0  0  0  0  0  0  0  0  0  0  0  0
    5.5048    1.8531    0.2587 C   0  0  0  0  0  0  0  0  0  0  0  0
    6.7309    1.2483    0.2075 N   0  0  0  0  0  0  0  0  0  0  0  0
    7.6170    1.7294    0.1335 H   0  0  0  0  0  0  0  0  0  0  0  0
    6.5873   -0.1178    0.2630 C   0  0  0  0  0  0  0  0  0  0  0  0
    7.5577   -1.1261    0.2128 C   0  0  0  0  0  0  0  0  0  0  0  0
    7.1202   -2.4500    0.2986 C   0  0  0  0  0  0  0  0  0  0  0  0
    5.7679   -2.7502    0.4405 C   0  0  0  0  0  0  0  0  0  0  0  0
    4.8103   -1.7300    0.4913 C   0  0  0  0  0  0  0  0  0  0  0  0
    5.2246   -0.3856    0.3934 C   0  0  0  0  0  0  0  0  0  0  0  0
    3.7163   -0.0573   -1.6499 H   0  0  0  0  0  0  0  0  0  0  0  0
    2.5754    0.2999    1.0125 H   0  0  0  0  0  0  0  0  0  0  0  0
    2.8701    2.0431    0.9532 H   0  0  0  0  0  0  0  0  0  0  0  0
    5.4238    2.9323    0.2155 H   0  0  0  0  0  0  0  0  0  0  0  0
    8.6138   -0.8958    0.1098 H   0  0  0  0  0  0  0  0  0  0  0  0
    7.8487   -3.2571    0.2579 H   0  0  0  0  0  0  0  0  0  0  0  0
    5.4514   -3.7883    0.5137 H   0  0  0  0  0  0  0  0  0  0  0  0
    3.7605   -1.9853    0.6058 H   0  0  0  0  0  0  0  0  0  0  0  0
  1  2  1  0  0  0  0
  1 15  1  0  0  0  0
  2  3  2  0  0  0  0
  2  4  1  0  0  0  0
  4  5  1  0  0  0  0
  4 16  1  0  0  0  0
  4 17  1  0  0  0  0
  5  6  2  0  0  0  0
  5 14  1  0  0  0  0
  6  7  1  0  0  0  0
  6 18  1  0  0  0  0
  7  8  1  0  0  0  0
  7  9  1  0  0  0  0
  9 10  2  0  0  0  0
  9 14  1  0  0  0  0
 10 11  1  0  0  0  0
 10 19  1  0  0  0  0
 11 12  2  0  0  0  0
 11 20  1  0  0  0  0
 12 13  1  0  0  0  0
 12 21  1  0  0  0  0
 13 14  2  0  0  0  0
 13 22  1  0  0  0  0
M  END
$$$$

 OpenBabel12201709243D

 11 10  0  0  0  0  0  0  0  0999 V2000
    1.1844    0.1840   -0.1763 O   0  0  0  0  0  0  0  0  0  0  0  0
    2.5149    0.1043   -0.0188 C   0  0  0  0  0  0  0  0  0  0  0  0
    3.2406    0.5508   -0.9010 O   0  0  0  0  0  0  0  0  0  0  0  0
    3.0835   -0.5234    1.2215 C   0  0  0  0  0  0  0  0  0  0  0  0
    2.4897   -1.0703    2.3021 C   0  0  0  0  0  0  0  0  0  0  0  0
    3.4089   -1.7444    3.6341 Cl  0  0  0  0  0  0  0  0  0  0  0  0
    1.0328   -1.1968    2.5522 C   0  0  0  0  0  0  0  0  0  0  0  0
    0.1727   -0.8030    1.7740 O   0  0  0  0  0  0  0  0  0  0  0  0
    4.8594   -0.5008    1.1769 Cl  0  0  0  0  0  0  0  0  0  0  0  0
    0.5900   -0.1699    0.5229 H   0  0  0  0  0  0  0  0  0  0  0  0
    0.7510   -1.6787    3.5044 H   0  0  0  0  0  0  0  0  0  0  0  0
  1  2  1  0  0  0  0
  1 10  1  0  0  0  0
  2  3  2  0  0  0  0
  2  4  1  0  0  0  0
  4  5  2  3  0  0  0
  4  9  1  0  0  0  0
  5  6  1  0  0  0  0
  5  7  1  0  0  0  0
  7  8  2  0  0  0  0
  7 11  1  0  0  0  0
M  END
$$$$

 OpenBabel12201709243D

 10  9  0  0  0  0  0  0  0  0999 V2000
    1.3291   -0.3121   -0.3479 Cl  0  0  0  0  0  0  0  0  0  0  0  0
    3.0109   -0.0633    0.0193 C   0  0  0  0  0  0  0  0  0  0  0  0
    3.4929    1.1324    0.4147 C   0  0  0  0  0  0  0  0  0  0  0  0
    5.1913    1.3640    0.7546 Cl  0  0  0  0  0  0  0  0  0  0  0  0
    2.6874    2.3348    0.5837 C   0  0  0  0  0  0  0  0  0  0  0  0
    1.8430    2.5587    1.6097 C   0  0  0  0  0  0  0  0  0  0  0  0
    0.9105    4.0162    1.7659 Cl  0  0  0  0  0  0  0  0  0  0  0  0
    1.6189    1.4076    2.8938 Cl  0  0  0  0  0  0  0  0  0  0  0  0
    2.9110    3.5194   -0.6841 Cl  0  0  0  0  0  0  0  0  0  0  0  0
    4.0128   -1.4693   -0.1679 Cl  0  0  0  0  0  0  0  0  0  0  0  0
  1  2  1  0  0  0  0
  2  3  2  0  0  0  0
  2 10  1  0  0  0  0
  3  4  1  0  0  0  0
  3  5  1  0  0  0  0
  5  6  2  0  0  0  0
  5  9  1  0  0  0  0
  6  7  1  0  0  0  0
  6  8  1  0  0  0  0
M  END
$$$$

 OpenBabel12201709243D

 13 13  0  0  0  0  0  0  0  0999 V2000
    0.9839   -0.0447   -0.0954 O   0  0  0  0  0  0  0  0  0  0  0  0
    2.3581   -0.0059   -0.0915 C   0  0  0  0  0  0  0  0  0  0  0  0
    3.0289    1.2232   -0.0882 C   0  0  0  0  0  0  0  0  0  0  0  0
    2.0710    2.6715   -0.0892 Cl  0  0  0  0  0  0  0  0  0  0  0  0
    4.4309    1.2577   -0.0841 C   0  0  0  0  0  0  0  0  0  0  0  0
    5.2576    2.7885   -0.0800 Cl  0  0  0  0  0  0  0  0  0  0  0  0
    5.1571    0.0502   -0.0833 C   0  0  0  0  0  0  0  0  0  0  0  0
    6.8997    0.0864   -0.0781 Cl  0  0  0  0  0  0  0  0  0  0  0  0
    4.4781   -1.1857   -0.0867 C   0  0  0  0  0  0  0  0  0  0  0  0
    5.3729   -2.6793   -0.0858 Cl  0  0  0  0  0  0  0  0  0  0  0  0
    3.0738   -1.2103   -0.0909 C   0  0  0  0  0  0  0  0  0  0  0  0
    2.1944   -2.7079   -0.0952 Cl  0  0  0  0  0  0  0  0  0  0  0  0
    0.6409    0.8695   -0.0951 H   0  0  0  0  0  0  0  0  0  0  0  0
  1  2  1  0  0  0  0
  1 13  1  0  0  0  0
  2  3  2  0  0  0  0
  2 11  1  0  0  0  0
  3  4  1  0  0  0  0
  3  5  1  0  0  0  0
  5  6  1  0  0  0  0
  5  7  2  0  0  0  0
  7  8  1  0  0  0  0
  7  9  1  0  0  0  0
  9 10  1  0  0  0  0
  9 11  2  0  0  0  0
 11 12  1  0  0  0  0
M  END
$$$$

 OpenBabel12201709243D

 16 16  0  0  0  0  0  0  0  0999 V2000
    1.1890   -0.0816    0.1854 C   0  0  0  0  0  0  0  0  0  0  0  0
    2.5672   -0.0336   -0.2398 N   0  0  0  0  0  0  0  0  0  0  0  0
    3.4064    1.1132   -0.0070 C   0  0  0  0  0  0  0  0  0  0  0  0
    4.6804    0.7424   -0.7404 C   0  0  0  0  0  0  0  0  0  0  0  0
    4.7732   -0.7659   -0.5359 C   0  0  0  0  0  0  0  0  0  0  0  0
    3.3267   -1.1866   -0.4195 C   0  0  0  0  0  0  0  0  0  0  0  0
    2.9221   -2.3362   -0.4195 O   0  0  0  0  0  0  0  0  0  0  0  0
    0.7718    0.9277    0.2167 H   0  0  0  0  0  0  0  0  0  0  0  0
    1.1319   -0.5470    1.1731 H   0  0  0  0  0  0  0  0  0  0  0  0
    0.6232   -0.6904   -0.5253 H   0  0  0  0  0  0  0  0  0  0  0  0
    3.5728    1.2181    1.0699 H   0  0  0  0  0  0  0  0  0  0  0  0
    2.9425    2.0187   -0.4076 H   0  0  0  0  0  0  0  0  0  0  0  0
    5.5580    1.2820   -0.3768 H   0  0  0  0  0  0  0  0  0  0  0  0
    4.5678    0.9583   -1.8105 H   0  0  0  0  0  0  0  0  0  0  0  0
    5.2937   -1.0105    0.3945 H   0  0  0  0  0  0  0  0  0  0  0  0
    5.2569   -1.2582   -1.3837 H   0  0  0  0  0  0  0  0  0  0  0  0
  1  2  1  0  0  0  0
  1  8  1  0  0  0  0
  1  9  1  0  0  0  0
  1 10  1  0  0  0  0
  2  3  1  0  0  0  0
  2  6  1  0  0  0  0
  3  4  1  0  0  0  0
  3 11  1  0  0  0  0
  3 12  1  0  0  0  0
  4  5  1  0  0  0  0
  4 13  1  0  0  0  0
  4 14  1  0  0  0  0
  5  6  1  0  0  0  0
  5 15  1  0  0  0  0
  5 16  1  0  0  0  0
  6  7  2  0  0  0  0
M  END
$$$$

 OpenBabel12201709243D

 13 13  0  0  0  0  0  0  0  0999 V2000
    1.0358   -0.0473   -0.0953 O   0  0  0  0  0  0  0  0  0  0  0  0
    2.4063   -0.0072   -0.0927 C   0  0  0  0  0  0  0  0  0  0  0  0
    3.0845    1.2162   -0.0904 C   0  0  0  0  0  0  0  0  0  0  0  0
    2.2047    2.7007   -0.0911 Cl  0  0  0  0  0  0  0  0  0  0  0  0
    4.4778    1.2536   -0.0876 C   0  0  0  0  0  0  0  0  0  0  0  0
    5.1923    0.0572   -0.0871 C   0  0  0  0  0  0  0  0  0  0  0  0
    6.9125    0.0954   -0.0836 Cl  0  0  0  0  0  0  0  0  0  0  0  0
    4.5302   -1.1696   -0.0894 C   0  0  0  0  0  0  0  0  0  0  0  0
    3.1346   -1.2002   -0.0922 C   0  0  0  0  0  0  0  0  0  0  0  0
    2.3466   -2.7355   -0.0949 Cl  0  0  0  0  0  0  0  0  0  0  0  0
    0.7059    0.8706   -0.0951 H   0  0  0  0  0  0  0  0  0  0  0  0
    5.0028    2.2053   -0.0859 H   0  0  0  0  0  0  0  0  0  0  0  0
    5.0970   -2.0973   -0.0889 H   0  0  0  0  0  0  0  0  0  0  0  0
  1  2  1  0  0  0  0
  1 11  1  0  0  0  0
  2  3  2  0  0  0  0
  2  9  1  0  0  0  0
  3  4  1  0  0  0  0
  3  5  1  0  0  0  0
  5  6  2  0  0  0  0
  5 12  1  0  0  0  0
  6  7  1  0  0  0  0
  6  8  1  0  0  0  0
  8  9  2  0  0  0  0
  8 13  1  0  0  0  0
  9 10  1  0  0  0  0
M  END
$$$$

 OpenBabel12201709243D

 20 20  0  0  0  0  0  0  0  0999 V2000
    0.9874    0.3054    0.0736 C   0  0  0  0  0  0  0  0  0  0  0  0
    2.4824    0.1985   -0.0353 C   0  0  0  0  0  0  0  0  0  0  0  0
    3.2365    1.3858   -0.0499 C   0  0  0  0  0  0  0  0  0  0  0  0
    4.6293    1.3569   -0.1445 C   0  0  0  0  0  0  0  0  0  0  0  0
    5.2976    0.1403   -0.2286 C   0  0  0  0  0  0  0  0  0  0  0  0
    4.5726   -1.0499   -0.2206 C   0  0  0  0  0  0  0  0  0  0  0  0
    3.1713   -1.0272   -0.1284 C   0  0  0  0  0  0  0  0  0  0  0  0
    2.3328   -2.5946   -0.0983 S   0  0  0  0  0  0  0  0  0  0  0  0
    3.2869   -3.6539   -0.3420 O   0  0  0  0  0  0  0  0  0  0  0  0
    1.4232   -2.6313    1.0214 O   0  0  0  0  0  0  0  0  0  0  0  0
    1.3837   -2.5555   -1.4839 N   0  0  0  0  0  0  0  0  0  0  0  0
    0.6702    1.3499    0.1726 H   0  0  0  0  0  0  0  0  0  0  0  0
    0.6199   -0.2176    0.9600 H   0  0  0  0  0  0  0  0  0  0  0  0
    0.5039   -0.0887   -0.8243 H   0  0  0  0  0  0  0  0  0  0  0  0
    2.7404    2.3529    0.0175 H   0  0  0  0  0  0  0  0  0  0  0  0
    5.1921    2.2873   -0.1490 H   0  0  0  0  0  0  0  0  0  0  0  0
    6.3823    0.1167   -0.2969 H   0  0  0  0  0  0  0  0  0  0  0  0
    5.1121   -1.9933   -0.2812 H   0  0  0  0  0  0  0  0  0  0  0  0
    1.7050   -3.2746   -2.1330 H   0  0  0  0  0  0  0  0  0  0  0  0
    0.4015   -2.6511   -1.2242 H   0  0  0  0  0  0  0  0  0  0  0  0
  1  2  1  0  0  0  0
  1 12  1  0  0  0  0
  1 13  1  0  0  0  0
  1 14  1  0  0  0  0
  2  3  2  0  0  0  0
  2  7  1  0  0  0  0
  3  4  1  0  0  0  0
  3 15  1  0  0  0  0
  4  5  2  0  0  0  0
  4 16  1  0  0  0  0
  5  6  1  0  0  0  0
  5 17  1  0  0  0  0
  6  7  2  0  0  0  0
  6 18  1  0  0  0  0
  7  8  1  0  0  0  0
  8  9  2  0  0  0  0
  8 10  2  0  0  0  0
  8 11  1  0  0  0  0
 11 19  1  0  0  0  0
 11 20  1  0  0  0  0
M  END
$$$$

 OpenBabel12201709243D

 15 15  0  0  0  0  0  0  0  0999 V2000
    1.0939    0.5387    0.5561 O   0  0  0  0  0  0  0  0  0  0  0  0
    2.2844    0.0996    0.0232 N   0  0  0  0  0  0  0  0  0  0  0  0
    2.8458   -0.8234    0.5724 O   0  0  0  0  0  0  0  0  0  0  0  0
    2.9035    0.8153   -1.0596 C   0  0  0  0  0  0  0  0  0  0  0  0
    2.8010    2.2152   -1.0591 C   0  0  0  0  0  0  0  0  0  0  0  0
    3.3705    2.9576   -2.0934 C   0  0  0  0  0  0  0  0  0  0  0  0
    4.0384    2.3071   -3.1289 C   0  0  0  0  0  0  0  0  0  0  0  0
    4.1365    0.9137   -3.1318 C   0  0  0  0  0  0  0  0  0  0  0  0
    3.5679    0.1588   -2.0992 C   0  0  0  0  0  0  0  0  0  0  0  0
    3.6805   -1.5586   -2.2246 Cl  0  0  0  0  0  0  0  0  0  0  0  0
    1.0175   -0.1287    1.2588 H   0  0  0  0  0  0  0  0  0  0  0  0
    2.2814    2.7327   -0.2550 H   0  0  0  0  0  0  0  0  0  0  0  0
    3.2905    4.0422   -2.0935 H   0  0  0  0  0  0  0  0  0  0  0  0
    4.4779    2.8838   -3.9399 H   0  0  0  0  0  0  0  0  0  0  0  0
    4.6527    0.4191   -3.9521 H   0  0  0  0  0  0  0  0  0  0  0  0
  1  2  1  0  0  0  0
  1 11  1  0  0  0  0
  2  3  2  0  0  0  0
  2  4  1  0  0  0  0
  4  5  2  0  0  0  0
  4  9  1  0  0  0  0
  5  6  1  0  0  0  0
  5 12  1  0  0  0  0
  6  7  2  0  0  0  0
  6 13  1  0  0  0  0
  7  8  1  0  0  0  0
  7 14  1  0  0  0  0
  8  9  2  0  0  0  0
  8 15  1  0  0  0  0
  9 10  1  0  0  0  0
M  END
$$$$

 OpenBabel12201709243D

 31 31  0  0  1  0  0  0  0  0999 V2000
    3.0045    1.2850    1.9090 C   0  0  0  0  0  0  0  0  0  0  0  0
    2.5666    1.8673    0.5717 C   0  0  0  0  0  0  0  0  0  0  0  0
    3.1347    1.1153   -0.6538 C   0  0  3  0  0  0  0  0  0  0  0  0
    2.5665    1.7310   -1.9413 C   0  0  0  0  0  0  0  0  0  0  0  0
    4.6623    1.0917   -0.6903 C   0  0  0  0  0  0  0  0  0  0  0  0
    5.3584    2.3176   -0.6862 C   0  0  0  0  0  0  0  0  0  0  0  0
    6.7592    2.3626   -0.6985 C   0  0  0  0  0  0  0  0  0  0  0  0
    7.4975    1.1817   -0.7274 C   0  0  0  0  0  0  0  0  0  0  0  0
    6.8312   -0.0528   -0.7591 C   0  0  0  0  0  0  0  0  0  0  0  0
    7.6405   -1.2686   -0.7939 N   0  0  0  0  0  0  0  0  0  0  0  0
    8.8486   -1.1609   -0.7202 O   0  0  0  0  0  0  0  0  0  0  0  0
    7.0977   -2.5364   -0.9316 O   0  0  0  0  0  0  0  0  0  0  0  0
    5.4251   -0.0929   -0.7224 C   0  0  0  0  0  0  0  0  0  0  0  0
    4.8311   -1.3269   -0.6998 O   0  0  0  0  0  0  0  0  0  0  0  0
    7.4253    3.6514   -0.6446 N   0  0  0  0  0  0  0  0  0  0  0  0
    6.8695    4.5734   -0.0834 O   0  0  0  0  0  0  0  0  0  0  0  0
    8.6573    3.8657   -1.2409 O   0  0  0  0  0  0  0  0  0  0  0  0
    2.5624    1.8624    2.7277 H   0  0  0  0  0  0  0  0  0  0  0  0
    4.0909    1.3190    2.0321 H   0  0  0  0  0  0  0  0  0  0  0  0
    2.6756    0.2461    2.0112 H   0  0  0  0  0  0  0  0  0  0  0  0
    2.8413    2.9285    0.5397 H   0  0  0  0  0  0  0  0  0  0  0  0
    1.4704    1.8350    0.5302 H   0  0  0  0  0  0  0  0  0  0  0  0
    2.7419    0.0948   -0.6109 H   0  0  0  0  0  0  0  0  0  0  0  0
    2.8735    2.7751   -2.0689 H   0  0  0  0  0  0  0  0  0  0  0  0
    1.4705    1.7109   -1.9257 H   0  0  0  0  0  0  0  0  0  0  0  0
    2.8979    1.1736   -2.8237 H   0  0  0  0  0  0  0  0  0  0  0  0
    4.8067    3.2577   -0.6570 H   0  0  0  0  0  0  0  0  0  0  0  0
    8.5861    1.2013   -0.6909 H   0  0  0  0  0  0  0  0  0  0  0  0
    6.1471   -2.3402   -0.9846 H   0  0  0  0  0  0  0  0  0  0  0  0
    4.0052   -1.2686   -0.1860 H   0  0  0  0  0  0  0  0  0  0  0  0
    8.7940    3.0577   -1.7521 H   0  0  0  0  0  0  0  0  0  0  0  0
  1  2  1  0  0  0  0
  1 18  1  0  0  0  0
  1 19  1  0  0  0  0
  1 20  1  0  0  0  0
  2  3  1  0  0  0  0
  2 21  1  0  0  0  0
  2 22  1  0  0  0  0
  3  4  1  0  0  0  0
  3  5  1  0  0  0  0
  3 23  1  0  0  0  0
  4 24  1  0  0  0  0
  4 25  1  0  0  0  0
  4 26  1  0  0  0  0
  5  6  2  0  0  0  0
  5 13  1  0  0  0  0
  6  7  1  0  0  0  0
  6 27  1  0  0  0  0
  7  8  2  0  0  0  0
  7 15  1  0  0  0  0
  8  9  1  0  0  0  0
  8 28  1  0  0  0  0
  9 10  1  0  0  0  0
  9 13  2  0  0  0  0
 10 11  2  0  0  0  0
 10 12  1  0  0  0  0
 12 29  1  0  0  0  0
 13 14  1  0  0  0  0
 14 30  1  0  0  0  0
 15 16  2  0  0  0  0
 15 17  1  0  0  0  0
 17 31  1  0  0  0  0
M  END
$$$$

 OpenBabel12201709243D

 20 20  0  0  0  0  0  0  0  0999 V2000
    1.0270    0.2764   -0.3912 N   0  0  0  0  0  0  0  0  0  0  0  0
    2.3534    0.0179   -0.1735 C   0  0  0  0  0  0  0  0  0  0  0  0
    2.8642   -0.9793   -0.6638 O   0  0  0  0  0  0  0  0  0  0  0  0
    3.1060    0.9610    0.6972 C   0  0  0  0  0  0  0  0  0  0  0  0
    2.7131    2.3183    0.6731 C   0  0  0  0  0  0  0  0  0  0  0  0
    3.3833    3.2818    1.4279 C   0  0  0  0  0  0  0  0  0  0  0  0
    4.4704    2.9107    2.2049 C   0  0  0  0  0  0  0  0  0  0  0  0
    4.8859    1.5788    2.2199 C   0  0  0  0  0  0  0  0  0  0  0  0
    4.2172    0.5828    1.4740 C   0  0  0  0  0  0  0  0  0  0  0  0
    4.7942   -0.7861    1.6398 C   0  0  0  0  0  0  0  0  0  0  0  0
    5.9724   -0.9342    1.9548 O   0  0  0  0  0  0  0  0  0  0  0  0
    3.9969   -1.8866    1.5140 N   0  0  0  0  0  0  0  0  0  0  0  0
    0.5117   -0.3979   -0.9437 H   0  0  0  0  0  0  0  0  0  0  0  0
    0.4969    0.9697    0.1171 H   0  0  0  0  0  0  0  0  0  0  0  0
    1.8987    2.6540    0.0351 H   0  0  0  0  0  0  0  0  0  0  0  0
    3.0673    4.3220    1.3940 H   0  0  0  0  0  0  0  0  0  0  0  0
    5.0065    3.6525    2.7921 H   0  0  0  0  0  0  0  0  0  0  0  0
    5.7476    1.3106    2.8324 H   0  0  0  0  0  0  0  0  0  0  0  0
    3.2436   -1.8659    0.8324 H   0  0  0  0  0  0  0  0  0  0  0  0
    4.5115   -2.7587    1.5145 H   0  0  0  0  0  0  0  0  0  0  0  0
  1  2  1  0  0  0  0
  1 13  1  0  0  0  0
  1 14  1  0  0  0  0
  2  3  2  0  0  0  0
  2  4  1  0  0  0  0
  4  5  2  0  0  0  0
  4  9  1  0  0  0  0
  5  6  1  0  0  0  0
  5 15  1  0  0  0  0
  6  7  2  0  0  0  0
  6 16  1  0  0  0  0
  7  8  1  0  0  0  0
  7 17  1  0  0  0  0
  8  9  2  0  0  0  0
  8 18  1  0  0  0  0
  9 10  1  0  0  0  0
 10 11  2  0  0  0  0
 10 12  1  0  0  0  0
 12 19  1  0  0  0  0
 12 20  1  0  0  0  0
M  END
$$$$

 OpenBabel12201709243D

 23 24  0  0  0  0  0  0  0  0999 V2000
    1.1182   -0.0702    0.1208 C   0  0  0  0  0  0  0  0  0  0  0  0
    2.6050    0.0126    0.1186 C   0  0  0  0  0  0  0  0  0  0  0  0
    3.3915   -1.0154    0.1868 N   0  0  0  0  0  0  0  0  0  0  0  0
    4.6844   -0.5173    0.1523 N   0  0  0  0  0  0  0  0  0  0  0  0
    4.7456    0.8822    0.0458 C   0  0  0  0  0  0  0  0  0  0  0  0
    5.6958    1.6440   -0.0328 O   0  0  0  0  0  0  0  0  0  0  0  0
    3.3143    1.3240    0.0617 C   0  0  0  0  0  0  0  0  0  0  0  0
    5.7692   -1.4270    0.2509 C   0  0  0  0  0  0  0  0  0  0  0  0
    7.1011   -0.9927    0.2375 C   0  0  0  0  0  0  0  0  0  0  0  0
    8.1587   -1.9012    0.3615 C   0  0  0  0  0  0  0  0  0  0  0  0
    7.9005   -3.2615    0.4997 C   0  0  0  0  0  0  0  0  0  0  0  0
    6.5857   -3.7141    0.5079 C   0  0  0  0  0  0  0  0  0  0  0  0
    5.5298   -2.8040    0.3827 C   0  0  0  0  0  0  0  0  0  0  0  0
    0.7916   -1.1114    0.0619 H   0  0  0  0  0  0  0  0  0  0  0  0
    0.7234    0.4799   -0.7376 H   0  0  0  0  0  0  0  0  0  0  0  0
    0.7333    0.3788    1.0400 H   0  0  0  0  0  0  0  0  0  0  0  0
    3.0564    1.8653   -0.8494 H   0  0  0  0  0  0  0  0  0  0  0  0
    3.1030    1.9072    0.9606 H   0  0  0  0  0  0  0  0  0  0  0  0
    7.3549    0.0581    0.1354 H   0  0  0  0  0  0  0  0  0  0  0  0
    9.1837   -1.5379    0.3536 H   0  0  0  0  0  0  0  0  0  0  0  0
    8.7233   -3.9642    0.6011 H   0  0  0  0  0  0  0  0  0  0  0  0
    6.3764   -4.7756    0.6152 H   0  0  0  0  0  0  0  0  0  0  0  0
    4.5126   -3.1880    0.3963 H   0  0  0  0  0  0  0  0  0  0  0  0
  1  2  1  0  0  0  0
  1 14  1  0  0  0  0
  1 15  1  0  0  0  0
  1 16  1  0  0  0  0
  2  3  2  0  0  0  0
  2  7  1  0  0  0  0
  3  4  1  0  0  0  0
  4  5  1  0  0  0  0
  4  8  1  0  0  0  0
  5  6  2  0  0  0  0
  5  7  1  0  0  0  0
  7 17  1  0  0  0  0
  7 18  1  0  0  0  0
  8  9  2  0  0  0  0
  8 13  1  0  0  0  0
  9 10  1  0  0  0  0
  9 19  1  0  0  0  0
 10 11  2  0  0  0  0
 10 20  1  0  0  0  0
 11 12  1  0  0  0  0
 11 21  1  0  0  0  0
 12 13  2  0  0  0  0
 12 22  1  0  0  0  0
 13 23  1  0  0  0  0
M  END
$$$$

 OpenBabel12201709243D

 23 24  0  0  0  0  0  0  0  0999 V2000
    1.0213    0.0730    0.1991 O   0  0  0  0  0  0  0  0  0  0  0  0
    2.3769    0.0398   -0.0195 C   0  0  0  0  0  0  0  0  0  0  0  0
    3.0696    1.2583   -0.0077 C   0  0  0  0  0  0  0  0  0  0  0  0
    4.4493    1.2795   -0.1894 C   0  0  0  0  0  0  0  0  0  0  0  0
    5.1332    0.0870   -0.3827 C   0  0  0  0  0  0  0  0  0  0  0  0
    4.4332   -1.1245   -0.4085 C   0  0  0  0  0  0  0  0  0  0  0  0
    3.0339   -1.1905   -0.2299 C   0  0  0  0  0  0  0  0  0  0  0  0
    2.3423   -2.5105   -0.3008 C   0  0  0  0  0  0  0  0  0  0  0  0
    2.9584   -3.6906    0.1654 C   0  0  0  0  0  0  0  0  0  0  0  0
    2.3474   -4.9440    0.0363 C   0  0  0  0  0  0  0  0  0  0  0  0
    1.0873   -5.0485   -0.5413 C   0  0  0  0  0  0  0  0  0  0  0  0
    0.4419   -3.9025   -0.9886 C   0  0  0  0  0  0  0  0  0  0  0  0
    1.0678   -2.6550   -0.8785 C   0  0  0  0  0  0  0  0  0  0  0  0
    0.7346    0.9967    0.2791 H   0  0  0  0  0  0  0  0  0  0  0  0
    2.5493    2.1993    0.1444 H   0  0  0  0  0  0  0  0  0  0  0  0
    4.9887    2.2227   -0.1814 H   0  0  0  0  0  0  0  0  0  0  0  0
    6.2111    0.0921   -0.5241 H   0  0  0  0  0  0  0  0  0  0  0  0
    5.0060   -2.0312   -0.5931 H   0  0  0  0  0  0  0  0  0  0  0  0
    3.9360   -3.6509    0.6407 H   0  0  0  0  0  0  0  0  0  0  0  0
    2.8603   -5.8354    0.3872 H   0  0  0  0  0  0  0  0  0  0  0  0
    0.6091   -6.0197   -0.6413 H   0  0  0  0  0  0  0  0  0  0  0  0
   -0.5472   -3.9707   -1.4335 H   0  0  0  0  0  0  0  0  0  0  0  0
    0.5403   -1.7867   -1.2661 H   0  0  0  0  0  0  0  0  0  0  0  0
  1  2  1  0  0  0  0
  1 14  1  0  0  0  0
  2  3  2  0  0  0  0
  2  7  1  0  0  0  0
  3  4  1  0  0  0  0
  3 15  1  0  0  0  0
  4  5  2  0  0  0  0
  4 16  1  0  0  0  0
  5  6  1  0  0  0  0
  5 17  1  0  0  0  0
  6  7  2  0  0  0  0
  6 18  1  0  0  0  0
  7  8  1  0  0  0  0
  8  9  2  0  0  0  0
  8 13  1  0  0  0  0
  9 10  1  0  0  0  0
  9 19  1  0  0  0  0
 10 11  2  0  0  0  0
 10 20  1  0  0  0  0
 11 12  1  0  0  0  0
 11 21  1  0  0  0  0
 12 13  2  0  0  0  0
 12 22  1  0  0  0  0
 13 23  1  0  0  0  0
M  END
$$$$

 OpenBabel12201709243D

 40 41  0  0  0  0  0  0  0  0999 V2000
    3.1520    1.3567   -0.8668 C   0  0  0  0  0  0  0  0  0  0  0  0
    2.6426    0.3070    0.0166 N   0  0  0  0  0  0  0  0  0  0  0  0
    1.1850    0.2576    0.1486 C   0  0  0  0  0  0  0  0  0  0  0  0
    3.3866   -0.0351    1.1541 C   0  0  0  0  0  0  0  0  0  0  0  0
    4.5744    0.6281    1.5068 C   0  0  0  0  0  0  0  0  0  0  0  0
    5.2956    0.2936    2.6612 C   0  0  0  0  0  0  0  0  0  0  0  0
    4.8712   -0.7464    3.4836 C   0  0  0  0  0  0  0  0  0  0  0  0
    3.7082   -1.4398    3.1563 C   0  0  0  0  0  0  0  0  0  0  0  0
    2.9896   -1.0898    2.0012 C   0  0  0  0  0  0  0  0  0  0  0  0
    5.6440   -1.0128    4.7202 C   0  0  0  0  0  0  0  0  0  0  0  0
    6.1134   -0.0494    5.3252 O   0  0  0  0  0  0  0  0  0  0  0  0
    5.9062   -2.3798    5.2389 C   0  0  0  0  0  0  0  0  0  0  0  0
    6.2380   -2.5162    6.5871 C   0  0  0  0  0  0  0  0  0  0  0  0
    6.5908   -3.7671    7.1102 C   0  0  0  0  0  0  0  0  0  0  0  0
    6.6498   -4.9243    6.3160 C   0  0  0  0  0  0  0  0  0  0  0  0
    6.2901   -4.7611    4.9673 C   0  0  0  0  0  0  0  0  0  0  0  0
    5.9264   -3.5128    4.4279 C   0  0  0  0  0  0  0  0  0  0  0  0
    7.0196   -6.1465    6.8557 N   0  0  0  0  0  0  0  0  0  0  0  0
    6.7290   -7.4158    6.1995 C   0  0  0  0  0  0  0  0  0  0  0  0
    8.0090   -6.2260    7.9311 C   0  0  0  0  0  0  0  0  0  0  0  0
    2.4813    1.5155   -1.7194 H   0  0  0  0  0  0  0  0  0  0  0  0
    4.1220    1.0702   -1.2875 H   0  0  0  0  0  0  0  0  0  0  0  0
    3.2457    2.3141   -0.3430 H   0  0  0  0  0  0  0  0  0  0  0  0
    0.6930    0.6642   -0.7430 H   0  0  0  0  0  0  0  0  0  0  0  0
    0.8458    0.8466    1.0080 H   0  0  0  0  0  0  0  0  0  0  0  0
    0.8266   -0.7721    0.2466 H   0  0  0  0  0  0  0  0  0  0  0  0
    4.9618    1.4448    0.9105 H   0  0  0  0  0  0  0  0  0  0  0  0
    6.1894    0.8596    2.9124 H   0  0  0  0  0  0  0  0  0  0  0  0
    3.3311   -2.2380    3.7901 H   0  0  0  0  0  0  0  0  0  0  0  0
    2.0981   -1.6701    1.7712 H   0  0  0  0  0  0  0  0  0  0  0  0
    6.2374   -1.6457    7.2408 H   0  0  0  0  0  0  0  0  0  0  0  0
    6.8046   -3.8143    8.1739 H   0  0  0  0  0  0  0  0  0  0  0  0
    6.3250   -5.6013    4.2798 H   0  0  0  0  0  0  0  0  0  0  0  0
    5.7047   -3.4528    3.3663 H   0  0  0  0  0  0  0  0  0  0  0  0
    5.9604   -7.3505    5.4249 H   0  0  0  0  0  0  0  0  0  0  0  0
    6.3501   -8.1252    6.9445 H   0  0  0  0  0  0  0  0  0  0  0  0
    7.6368   -7.8418    5.7585 H   0  0  0  0  0  0  0  0  0  0  0  0
    8.3153   -5.2620    8.3463 H   0  0  0  0  0  0  0  0  0  0  0  0
    8.9227   -6.7105    7.5668 H   0  0  0  0  0  0  0  0  0  0  0  0
    7.6101   -6.8311    8.7522 H   0  0  0  0  0  0  0  0  0  0  0  0
  1  2  1  0  0  0  0
  1 21  1  0  0  0  0
  1 22  1  0  0  0  0
  1 23  1  0  0  0  0
  2  3  1  0  0  0  0
  2  4  1  0  0  0  0
  3 24  1  0  0  0  0
  3 25  1  0  0  0  0
  3 26  1  0  0  0  0
  4  5  2  0  0  0  0
  4  9  1  0  0  0  0
  5  6  1  0  0  0  0
  5 27  1  0  0  0  0
  6  7  2  0  0  0  0
  6 28  1  0  0  0  0
  7  8  1  0  0  0  0
  7 10  1  0  0  0  0
  8  9  2  0  0  0  0
  8 29  1  0  0  0  0
  9 30  1  0  0  0  0
 10 11  2  0  0  0  0
 10 12  1  0  0  0  0
 12 13  2  0  0  0  0
 12 17  1  0  0  0  0
 13 14  1  0  0  0  0
 13 31  1  0  0  0  0
 14 15  2  0  0  0  0
 14 32  1  0  0  0  0
 15 16  1  0  0  0  0
 15 18  1  0  0  0  0
 16 17  2  0  0  0  0
 16 33  1  0  0  0  0
 17 34  1  0  0  0  0
 18 19  1  0  0  0  0
 18 20  1  0  0  0  0
 19 35  1  0  0  0  0
 19 36  1  0  0  0  0
 19 37  1  0  0  0  0
 20 38  1  0  0  0  0
 20 39  1  0  0  0  0
 20 40  1  0  0  0  0
M  END
$$$$

 OpenBabel12201709243D

 18 19  0  0  0  0  0  0  0  0999 V2000
    2.4442   -0.6738    0.0286 C   0  0  0  0  0  0  0  0  0  0  0  0
    2.4259    0.7178    0.0252 C   0  0  0  0  0  0  0  0  0  0  0  0
    1.2079    1.3996    0.0114 C   0  0  0  0  0  0  0  0  0  0  0  0
   -0.0080    0.6968   -0.0011 C   0  0  0  0  0  0  0  0  0  0  0  0
   -1.2420    1.3673   -0.0208 C   0  0  0  0  0  0  0  0  0  0  0  0
   -2.4414    0.6537   -0.0360 C   0  0  0  0  0  0  0  0  0  0  0  0
   -2.4231   -0.7379   -0.0282 C   0  0  0  0  0  0  0  0  0  0  0  0
   -1.2054   -1.4198   -0.0071 C   0  0  0  0  0  0  0  0  0  0  0  0
    0.0105   -0.7172    0.0045 C   0  0  0  0  0  0  0  0  0  0  0  0
    1.2446   -1.3875    0.0200 C   0  0  0  0  0  0  0  0  0  0  0  0
    3.3918   -1.2059    0.0373 H   0  0  0  0  0  0  0  0  0  0  0  0
    3.3593    1.2744    0.0327 H   0  0  0  0  0  0  0  0  0  0  0  0
    1.2138    2.4871    0.0093 H   0  0  0  0  0  0  0  0  0  0  0  0
   -1.2762    2.4543   -0.0267 H   0  0  0  0  0  0  0  0  0  0  0  0
   -3.3890    1.1856   -0.0544 H   0  0  0  0  0  0  0  0  0  0  0  0
   -3.3565   -1.2945   -0.0395 H   0  0  0  0  0  0  0  0  0  0  0  0
   -1.2115   -2.5074   -0.0009 H   0  0  0  0  0  0  0  0  0  0  0  0
    1.2791   -2.4746    0.0235 H   0  0  0  0  0  0  0  0  0  0  0  0
  1  2  2  0  0  0  0
  1 10  1  0  0  0  0
  1 11  1  0  0  0  0
  2  3  1  0  0  0  0
  2 12  1  0  0  0  0
  3  4  2  0  0  0  0
  3 13  1  0  0  0  0
  4  5  1  0  0  0  0
  4  9  1  0  0  0  0
  5  6  2  0  0  0  0
  5 14  1  0  0  0  0
  6  7  1  0  0  0  0
  6 15  1  0  0  0  0
  7  8  2  0  0  0  0
  7 16  1  0  0  0  0
  8  9  1  0  0  0  0
  8 17  1  0  0  0  0
  9 10  2  0  0  0  0
 10 18  1  0  0  0  0
M  END
$$$$

 OpenBabel12201709243D

 19 19  0  0  0  0  0  0  0  0999 V2000
    1.4428    1.0921   -0.3012 C   0  0  0  0  0  0  0  0  0  0  0  0
    2.4019    0.0832    0.0153 O   0  0  0  0  0  0  0  0  0  0  0  0
    3.1305    0.2676    1.1630 C   0  0  0  0  0  0  0  0  0  0  0  0
    3.3663    1.5270    1.7299 C   0  0  0  0  0  0  0  0  0  0  0  0
    4.1374    1.6558    2.8882 C   0  0  0  0  0  0  0  0  0  0  0  0
    4.6853    0.5296    3.4916 C   0  0  0  0  0  0  0  0  0  0  0  0
    4.4713   -0.7276    2.9317 C   0  0  0  0  0  0  0  0  0  0  0  0
    3.7007   -0.8667    1.7621 C   0  0  0  0  0  0  0  0  0  0  0  0
    3.5170   -2.2133    1.2253 N   0  0  0  0  0  0  0  0  0  0  0  0
    3.9980   -3.1530    1.8295 O   0  0  0  0  0  0  0  0  0  0  0  0
    2.8176   -2.4771    0.0572 O   0  0  0  0  0  0  0  0  0  0  0  0
    0.9077    0.7699   -1.1995 H   0  0  0  0  0  0  0  0  0  0  0  0
    1.9209    2.0475   -0.5366 H   0  0  0  0  0  0  0  0  0  0  0  0
    0.7128    1.2000    0.5079 H   0  0  0  0  0  0  0  0  0  0  0  0
    2.9807    2.4390    1.2858 H   0  0  0  0  0  0  0  0  0  0  0  0
    4.3154    2.6403    3.3150 H   0  0  0  0  0  0  0  0  0  0  0  0
    5.2845    0.6284    4.3933 H   0  0  0  0  0  0  0  0  0  0  0  0
    4.9107   -1.6012    3.4120 H   0  0  0  0  0  0  0  0  0  0  0  0
    2.5590   -1.5867   -0.2260 H   0  0  0  0  0  0  0  0  0  0  0  0
  1  2  1  0  0  0  0
  1 12  1  0  0  0  0
  1 13  1  0  0  0  0
  1 14  1  0  0  0  0
  2  3  1  0  0  0  0
  3  4  2  0  0  0  0
  3  8  1  0  0  0  0
  4  5  1  0  0  0  0
  4 15  1  0  0  0  0
  5  6  2  0  0  0  0
  5 16  1  0  0  0  0
  6  7  1  0  0  0  0
  6 17  1  0  0  0  0
  7  8  2  0  0  0  0
  7 18  1  0  0  0  0
  8  9  1  0  0  0  0
  9 10  2  0  0  0  0
  9 11  1  0  0  0  0
 11 19  1  0  0  0  0
M  END
$$$$

 OpenBabel12201709243D

 35 36  0  0  0  0  0  0  0  0999 V2000
    0.8670    1.0280    1.1729 C   0  0  0  0  0  0  0  0  0  0  0  0
    2.3699    1.1645    1.3165 C   0  0  0  0  0  0  0  0  0  0  0  0
    2.9863   -0.1256    1.2697 O   0  0  0  0  0  0  0  0  0  0  0  0
    4.3445   -0.1328    1.4917 C   0  0  0  0  0  0  0  0  0  0  0  0
    5.1262    1.0113    1.6192 C   0  0  0  0  0  0  0  0  0  0  0  0
    6.4890    0.9010    1.8899 C   0  0  0  0  0  0  0  0  0  0  0  0
    7.1026   -0.3507    2.0103 C   0  0  0  0  0  0  0  0  0  0  0  0
    8.4346   -0.3782    2.4024 N   0  0  0  0  0  0  0  0  0  0  0  0
    9.2011   -1.6168    2.4155 C   0  0  0  0  0  0  0  0  0  0  0  0
   10.2044   -1.5809    1.2553 C   0  0  0  0  0  0  0  0  0  0  0  0
    9.9482   -1.6569    3.7562 C   0  0  0  0  0  0  0  0  0  0  0  0
    8.3199   -2.8352    2.2834 C   0  0  0  0  0  0  0  0  0  0  0  0
    6.9975   -2.8292    2.0294 C   0  0  0  0  0  0  0  0  0  0  0  0
    6.2262   -4.1078    1.8855 C   0  0  0  0  0  0  0  0  0  0  0  0
    6.3246   -1.5181    1.8746 C   0  0  0  0  0  0  0  0  0  0  0  0
    4.9479   -1.3900    1.6061 C   0  0  0  0  0  0  0  0  0  0  0  0
    0.3949    2.0152    1.2043 H   0  0  0  0  0  0  0  0  0  0  0  0
    0.4537    0.4152    1.9796 H   0  0  0  0  0  0  0  0  0  0  0  0
    0.6088    0.5439    0.2266 H   0  0  0  0  0  0  0  0  0  0  0  0
    2.5795    1.6497    2.2779 H   0  0  0  0  0  0  0  0  0  0  0  0
    2.7420    1.7839    0.4918 H   0  0  0  0  0  0  0  0  0  0  0  0
    4.7202    2.0106    1.5357 H   0  0  0  0  0  0  0  0  0  0  0  0
    7.0686    1.8067    2.0246 H   0  0  0  0  0  0  0  0  0  0  0  0
    8.9659    0.4552    2.1756 H   0  0  0  0  0  0  0  0  0  0  0  0
   10.8488   -0.6953    1.3144 H   0  0  0  0  0  0  0  0  0  0  0  0
    9.6910   -1.5393    0.2857 H   0  0  0  0  0  0  0  0  0  0  0  0
   10.8517   -2.4647    1.2543 H   0  0  0  0  0  0  0  0  0  0  0  0
   10.5750   -0.7653    3.8848 H   0  0  0  0  0  0  0  0  0  0  0  0
   10.5945   -2.5366    3.8356 H   0  0  0  0  0  0  0  0  0  0  0  0
    9.2452   -1.6765    4.6001 H   0  0  0  0  0  0  0  0  0  0  0  0
    8.8304   -3.7898    2.3908 H   0  0  0  0  0  0  0  0  0  0  0  0
    6.8692   -4.9857    2.0134 H   0  0  0  0  0  0  0  0  0  0  0  0
    5.7793   -4.1826    0.8886 H   0  0  0  0  0  0  0  0  0  0  0  0
    5.4350   -4.1752    2.6386 H   0  0  0  0  0  0  0  0  0  0  0  0
    4.3189   -2.2725    1.5005 H   0  0  0  0  0  0  0  0  0  0  0  0
  1  2  1  0  0  0  0
  1 17  1  0  0  0  0
  1 18  1  0  0  0  0
  1 19  1  0  0  0  0
  2  3  1  0  0  0  0
  2 20  1  0  0  0  0
  2 21  1  0  0  0  0
  3  4  1  0  0  0  0
  4  5  2  0  0  0  0
  4 16  1  0  0  0  0
  5  6  1  0  0  0  0
  5 22  1  0  0  0  0
  6  7  2  0  0  0  0
  6 23  1  0  0  0  0
  7  8  1  0  0  0  0
  7 15  1  0  0  0  0
  8  9  1  0  0  0  0
  8 24  1  0  0  0  0
  9 10  1  0  0  0  0
  9 11  1  0  0  0  0
  9 12  1  0  0  0  0
 10 25  1  0  0  0  0
 10 26  1  0  0  0  0
 10 27  1  0  0  0  0
 11 28  1  0  0  0  0
 11 29  1  0  0  0  0
 11 30  1  0  0  0  0
 12 13  2  0  0  0  0
 12 31  1  0  0  0  0
 13 14  1  0  0  0  0
 13 15  1  0  0  0  0
 14 32  1  0  0  0  0
 14 33  1  0  0  0  0
 14 34  1  0  0  0  0
 15 16  2  0  0  0  0
 16 35  1  0  0  0  0
M  END
$$$$

 OpenBabel12201709243D

 20 21  0  0  0  0  0  0  0  0999 V2000
    0.8618    0.0674   -0.0562 N   0  0  0  0  0  0  0  0  0  0  0  0
    2.2579    0.0378    0.0539 C   0  0  0  0  0  0  0  0  0  0  0  0
    2.9400   -1.1769   -0.0093 C   0  0  0  0  0  0  0  0  0  0  0  0
    4.3372   -1.2111   -0.0503 C   0  0  0  0  0  0  0  0  0  0  0  0
    5.0815   -0.0231   -0.0788 C   0  0  0  0  0  0  0  0  0  0  0  0
    6.4845   -0.0372   -0.1496 C   0  0  0  0  0  0  0  0  0  0  0  0
    7.2071    1.1555   -0.2053 C   0  0  0  0  0  0  0  0  0  0  0  0
    6.5376    2.3752   -0.1826 C   0  0  0  0  0  0  0  0  0  0  0  0
    5.1439    2.4050   -0.1088 C   0  0  0  0  0  0  0  0  0  0  0  0
    4.4008    1.2138   -0.0607 C   0  0  0  0  0  0  0  0  0  0  0  0
    2.9946    1.2244   -0.0130 C   0  0  0  0  0  0  0  0  0  0  0  0
    0.4036   -0.7673    0.2950 H   0  0  0  0  0  0  0  0  0  0  0  0
    0.4392    0.9193    0.2984 H   0  0  0  0  0  0  0  0  0  0  0  0
    2.3896   -2.1135   -0.0319 H   0  0  0  0  0  0  0  0  0  0  0  0
    4.8377   -2.1757   -0.0834 H   0  0  0  0  0  0  0  0  0  0  0  0
    7.0239   -0.9814   -0.1736 H   0  0  0  0  0  0  0  0  0  0  0  0
    8.2914    1.1301   -0.2723 H   0  0  0  0  0  0  0  0  0  0  0  0
    7.0988    3.3048   -0.2269 H   0  0  0  0  0  0  0  0  0  0  0  0
    4.6387    3.3681   -0.0948 H   0  0  0  0  0  0  0  0  0  0  0  0
    2.4674    2.1749   -0.0364 H   0  0  0  0  0  0  0  0  0  0  0  0
  1  2  1  0  0  0  0
  1 12  1  0  0  0  0
  1 13  1  0  0  0  0
  2  3  2  0  0  0  0
  2 11  1  0  0  0  0
  3  4  1  0  0  0  0
  3 14  1  0  0  0  0
  4  5  2  0  0  0  0
  4 15  1  0  0  0  0
  5  6  1  0  0  0  0
  5 10  1  0  0  0  0
  6  7  2  0  0  0  0
  6 16  1  0  0  0  0
  7  8  1  0  0  0  0
  7 17  1  0  0  0  0
  8  9  2  0  0  0  0
  8 18  1  0  0  0  0
  9 10  1  0  0  0  0
  9 19  1  0  0  0  0
 10 11  2  0  0  0  0
 11 20  1  0  0  0  0
M  END
$$$$

 OpenBabel12201709253D

 20 21  0  0  0  0  0  0  0  0999 V2000
    0.9671   -0.0476    0.0639 C   0  0  0  0  0  0  0  0  0  0  0  0
    2.4660   -0.0436    0.0224 C   0  0  0  0  0  0  0  0  0  0  0  0
    3.1840    1.1521   -0.0157 C   0  0  0  0  0  0  0  0  0  0  0  0
    4.5821    1.1334   -0.0775 C   0  0  0  0  0  0  0  0  0  0  0  0
    5.2976   -0.0552   -0.1062 C   0  0  0  0  0  0  0  0  0  0  0  0
    6.6405   -0.0198   -0.1863 N   0  0  0  0  0  0  0  0  0  0  0  0
    7.3037   -1.1964   -0.2230 C   0  0  0  0  0  0  0  0  0  0  0  0
    6.6873   -2.4320   -0.1749 C   0  0  0  0  0  0  0  0  0  0  0  0
    5.3010   -2.4650   -0.0874 C   0  0  0  0  0  0  0  0  0  0  0  0
    4.5760   -1.2660   -0.0568 C   0  0  0  0  0  0  0  0  0  0  0  0
    3.1705   -1.2524    0.0119 C   0  0  0  0  0  0  0  0  0  0  0  0
    0.5616    0.9692    0.0358 H   0  0  0  0  0  0  0  0  0  0  0  0
    0.6145   -0.5271    0.9823 H   0  0  0  0  0  0  0  0  0  0  0  0
    0.5696   -0.5889   -0.8009 H   0  0  0  0  0  0  0  0  0  0  0  0
    2.6691    2.1100   -0.0038 H   0  0  0  0  0  0  0  0  0  0  0  0
    5.1284    2.0730   -0.1118 H   0  0  0  0  0  0  0  0  0  0  0  0
    8.3843   -1.1129   -0.2973 H   0  0  0  0  0  0  0  0  0  0  0  0
    7.2698   -3.3453   -0.2085 H   0  0  0  0  0  0  0  0  0  0  0  0
    4.7908   -3.4236   -0.0484 H   0  0  0  0  0  0  0  0  0  0  0  0
    2.6211   -2.1910    0.0479 H   0  0  0  0  0  0  0  0  0  0  0  0
  1  2  1  0  0  0  0
  1 12  1  0  0  0  0
  1 13  1  0  0  0  0
  1 14  1  0  0  0  0
  2  3  2  0  0  0  0
  2 11  1  0  0  0  0
  3  4  1  0  0  0  0
  3 15  1  0  0  0  0
  4  5  2  0  0  0  0
  4 16  1  0  0  0  0
  5  6  1  0  0  0  0
  5 10  1  0  0  0  0
  6  7  2  0  0  0  0
  7  8  1  0  0  0  0
  7 17  1  0  0  0  0
  8  9  2  0  0  0  0
  8 18  1  0  0  0  0
  9 10  1  0  0  0  0
  9 19  1  0  0  0  0
 10 11  2  0  0  0  0
 11 20  1  0  0  0  0
M  END
$$$$

 OpenBabel12201709253D

 17 18  0  0  0  0  0  0  0  0999 V2000
    0.8814    0.1324    0.1474 O   0  0  0  0  0  0  0  0  0  0  0  0
    2.1048    0.1050    0.0771 C   0  0  0  0  0  0  0  0  0  0  0  0
    2.8244   -1.1803    0.0304 C   0  0  0  0  0  0  0  0  0  0  0  0
    4.1553   -1.2552   -0.0678 C   0  0  0  0  0  0  0  0  0  0  0  0
    4.9363   -0.0315   -0.1350 C   0  0  0  0  0  0  0  0  0  0  0  0
    6.3264   -0.0442   -0.2643 C   0  0  0  0  0  0  0  0  0  0  0  0
    7.0334    1.1609   -0.3297 C   0  0  0  0  0  0  0  0  0  0  0  0
    6.3563    2.3811   -0.2608 C   0  0  0  0  0  0  0  0  0  0  0  0
    4.9691    2.4016   -0.1296 C   0  0  0  0  0  0  0  0  0  0  0  0
    4.2764    1.1945   -0.0721 C   0  0  0  0  0  0  0  0  0  0  0  0
    2.8741    1.2594    0.0430 O   0  0  0  0  0  0  0  0  0  0  0  0
    2.2050   -2.0672    0.0773 H   0  0  0  0  0  0  0  0  0  0  0  0
    4.6641   -2.2125   -0.0998 H   0  0  0  0  0  0  0  0  0  0  0  0
    6.8719   -0.9830   -0.3192 H   0  0  0  0  0  0  0  0  0  0  0  0
    8.1158    1.1487   -0.4361 H   0  0  0  0  0  0  0  0  0  0  0  0
    6.9111    3.3148   -0.3123 H   0  0  0  0  0  0  0  0  0  0  0  0
    4.4341    3.3453   -0.0771 H   0  0  0  0  0  0  0  0  0  0  0  0
  1  2  2  0  0  0  0
  2  3  1  0  0  0  0
  2 11  1  0  0  0  0
  3  4  2  0  0  0  0
  3 12  1  0  0  0  0
  4  5  1  0  0  0  0
  4 13  1  0  0  0  0
  5  6  2  0  0  0  0
  5 10  1  0  0  0  0
  6  7  1  0  0  0  0
  6 14  1  0  0  0  0
  7  8  2  0  0  0  0
  7 15  1  0  0  0  0
  8  9  1  0  0  0  0
  8 16  1  0  0  0  0
  9 10  2  0  0  0  0
  9 17  1  0  0  0  0
 10 11  1  0  0  0  0
M  END
$$$$

 OpenBabel12201709253D

 34 35  0  0  0  0  0  0  0  0999 V2000
    2.6293   -1.0213   -0.9232 C   0  0  0  0  0  0  0  0  0  0  0  0
    2.4518   -0.0020    0.0563 O   0  0  0  0  0  0  0  0  0  0  0  0
    3.2097   -0.1067    1.2009 C   0  0  0  0  0  0  0  0  0  0  0  0
    3.5554    1.1484    1.7521 C   0  0  0  0  0  0  0  0  0  0  0  0
    4.3382    1.2635    2.9127 C   0  0  0  0  0  0  0  0  0  0  0  0
    4.7200    0.0629    3.5305 C   0  0  0  0  0  0  0  0  0  0  0  0
    4.3765   -1.1853    3.0015 C   0  0  0  0  0  0  0  0  0  0  0  0
    3.6040   -1.3046    1.8339 C   0  0  0  0  0  0  0  0  0  0  0  0
    3.2722   -2.5621    1.2779 N   0  0  0  0  0  0  0  0  0  0  0  0
    3.1370   -3.4441    2.0391 C   0  0  0  0  0  0  0  0  0  0  0  0
    3.0284   -4.3359    2.7972 O   0  0  0  0  0  0  0  0  0  0  0  0
    4.7825    2.5679    3.4699 C   0  0  0  0  0  0  0  0  0  0  0  0
    6.0348    2.6805    4.0984 C   0  0  0  0  0  0  0  0  0  0  0  0
    6.4675    3.8754    4.6787 C   0  0  0  0  0  0  0  0  0  0  0  0
    5.6609    5.0212    4.6602 C   0  0  0  0  0  0  0  0  0  0  0  0
    6.0845    6.2570    5.2126 N   0  0  0  0  0  0  0  0  0  0  0  0
    6.6577    6.1707    6.2320 C   0  0  0  0  0  0  0  0  0  0  0  0
    7.2607    6.0738    7.2391 O   0  0  0  0  0  0  0  0  0  0  0  0
    4.4132    4.9419    4.0006 C   0  0  0  0  0  0  0  0  0  0  0  0
    3.6734    6.1019    3.9983 O   0  0  0  0  0  0  0  0  0  0  0  0
    2.4308    6.0986    3.3091 C   0  0  0  0  0  0  0  0  0  0  0  0
    3.9916    3.7307    3.4144 C   0  0  0  0  0  0  0  0  0  0  0  0
    2.2630   -0.6362   -1.8797 H   0  0  0  0  0  0  0  0  0  0  0  0
    2.0214   -1.8991   -0.6852 H   0  0  0  0  0  0  0  0  0  0  0  0
    3.6851   -1.2827   -1.0563 H   0  0  0  0  0  0  0  0  0  0  0  0
    3.2254    2.0411    1.2229 H   0  0  0  0  0  0  0  0  0  0  0  0
    5.3022    0.0738    4.4503 H   0  0  0  0  0  0  0  0  0  0  0  0
    4.7368   -2.0670    3.5286 H   0  0  0  0  0  0  0  0  0  0  0  0
    6.7123    1.8290    4.1404 H   0  0  0  0  0  0  0  0  0  0  0  0
    7.4516    3.8907    5.1436 H   0  0  0  0  0  0  0  0  0  0  0  0
    1.9603    7.0747    3.4630 H   0  0  0  0  0  0  0  0  0  0  0  0
    1.7508    5.3416    3.7126 H   0  0  0  0  0  0  0  0  0  0  0  0
    2.5812    5.9650    2.2329 H   0  0  0  0  0  0  0  0  0  0  0  0
    3.0265    3.6737    2.9208 H   0  0  0  0  0  0  0  0  0  0  0  0
  1  2  1  0  0  0  0
  1 23  1  0  0  0  0
  1 24  1  0  0  0  0
  1 25  1  0  0  0  0
  2  3  1  0  0  0  0
  3  4  2  0  0  0  0
  3  8  1  0  0  0  0
  4  5  1  0  0  0  0
  4 26  1  0  0  0  0
  5  6  2  0  0  0  0
  5 12  1  0  0  0  0
  6  7  1  0  0  0  0
  6 27  1  0  0  0  0
  7  8  2  0  0  0  0
  7 28  1  0  0  0  0
  8  9  1  0  0  0  0
  9 10  2  0  0  0  0
 10 11  2  0  0  0  0
 12 13  2  0  0  0  0
 12 22  1  0  0  0  0
 13 14  1  0  0  0  0
 13 29  1  0  0  0  0
 14 15  2  0  0  0  0
 14 30  1  0  0  0  0
 15 16  1  0  0  0  0
 15 19  1  0  0  0  0
 16 17  2  0  0  0  0
 17 18  2  0  0  0  0
 19 20  1  0  0  0  0
 19 22  2  0  0  0  0
 20 21  1  0  0  0  0
 21 31  1  0  0  0  0
 21 32  1  0  0  0  0
 21 33  1  0  0  0  0
 22 34  1  0  0  0  0
M  END
$$$$

 OpenBabel12201709253D

 26 27  0  0  0  0  0  0  0  0999 V2000
    0.9712   -0.0073    0.3002 N   0  0  0  0  0  0  0  0  0  0  0  0
    2.3436   -0.0439   -0.0027 C   0  0  0  0  0  0  0  0  0  0  0  0
    3.0650    1.1495   -0.0522 C   0  0  0  0  0  0  0  0  0  0  0  0
    4.4532    1.1468   -0.2559 C   0  0  0  0  0  0  0  0  0  0  0  0
    5.1803   -0.0511   -0.3655 C   0  0  0  0  0  0  0  0  0  0  0  0
    4.4543   -1.2479   -0.2285 C   0  0  0  0  0  0  0  0  0  0  0  0
    3.0666   -1.2443   -0.0405 C   0  0  0  0  0  0  0  0  0  0  0  0
    2.2552   -2.7672    0.0990 Cl  0  0  0  0  0  0  0  0  0  0  0  0
    6.6459   -0.0671   -0.6061 C   0  0  0  0  0  0  0  0  0  0  0  0
    7.2495   -1.0928   -1.3572 C   0  0  0  0  0  0  0  0  0  0  0  0
    8.6337   -1.1411   -1.5659 C   0  0  0  0  0  0  0  0  0  0  0  0
    9.4739   -0.1752   -1.0145 C   0  0  0  0  0  0  0  0  0  0  0  0
   10.8420   -0.1934   -1.3398 N   0  0  0  0  0  0  0  0  0  0  0  0
    8.8779    0.8987   -0.3358 C   0  0  0  0  0  0  0  0  0  0  0  0
    9.8477    2.1926    0.2832 Cl  0  0  0  0  0  0  0  0  0  0  0  0
    7.4939    0.9396   -0.1122 C   0  0  0  0  0  0  0  0  0  0  0  0
    0.4884    0.8100   -0.0586 H   0  0  0  0  0  0  0  0  0  0  0  0
    0.4987   -0.8776    0.0613 H   0  0  0  0  0  0  0  0  0  0  0  0
    2.5519    2.1016    0.0609 H   0  0  0  0  0  0  0  0  0  0  0  0
    4.9537    2.1102   -0.3319 H   0  0  0  0  0  0  0  0  0  0  0  0
    4.9681   -2.2062   -0.2538 H   0  0  0  0  0  0  0  0  0  0  0  0
    6.6422   -1.8723   -1.8143 H   0  0  0  0  0  0  0  0  0  0  0  0
    9.0448   -1.9451   -2.1704 H   0  0  0  0  0  0  0  0  0  0  0  0
   11.2254   -1.1256   -1.4608 H   0  0  0  0  0  0  0  0  0  0  0  0
   11.3981    0.3783   -0.7066 H   0  0  0  0  0  0  0  0  0  0  0  0
    7.0888    1.7688    0.4621 H   0  0  0  0  0  0  0  0  0  0  0  0
  1  2  1  0  0  0  0
  1 17  1  0  0  0  0
  1 18  1  0  0  0  0
  2  3  2  0  0  0  0
  2  7  1  0  0  0  0
  3  4  1  0  0  0  0
  3 19  1  0  0  0  0
  4  5  2  0  0  0  0
  4 20  1  0  0  0  0
  5  6  1  0  0  0  0
  5  9  1  0  0  0  0
  6  7  2  0  0  0  0
  6 21  1  0  0  0  0
  7  8  1  0  0  0  0
  9 10  2  0  0  0  0
  9 16  1  0  0  0  0
 10 11  1  0  0  0  0
 10 22  1  0  0  0  0
 11 12  2  0  0  0  0
 11 23  1  0  0  0  0
 12 13  1  0  0  0  0
 12 14  1  0  0  0  0
 13 24  1  0  0  0  0
 13 25  1  0  0  0  0
 14 15  1  0  0  0  0
 14 16  2  0  0  0  0
 16 26  1  0  0  0  0
M  END
$$$$

 OpenBabel12201709253D

 49 52  0  0  0  0  0  0  0  0999 V2000
    0.7400    0.2502    0.1349 O   0  0  0  0  0  0  0  0  0  0  0  0
    2.1106    0.1773    0.0313 C   0  0  0  0  0  0  0  0  0  0  0  0
    2.7431   -1.0821   -0.0555 C   0  0  0  0  0  0  0  0  0  0  0  0
    1.9809   -2.2870   -0.0876 N   0  0  0  0  0  0  0  0  0  0  0  0
    0.9838   -2.2063   -0.8462 N   0  0  0  0  0  0  0  0  0  0  0  0
    0.2865   -3.4369   -0.9968 C   0  0  0  0  0  0  0  0  0  0  0  0
    1.0003   -4.6433   -1.0605 C   0  0  0  0  0  0  0  0  0  0  0  0
    0.3563   -5.8459   -1.3084 C   0  0  0  0  0  0  0  0  0  0  0  0
   -1.0286   -5.8683   -1.4926 C   0  0  0  0  0  0  0  0  0  0  0  0
   -1.8108   -4.6886   -1.4049 C   0  0  0  0  0  0  0  0  0  0  0  0
   -3.2248   -4.6674   -1.5455 C   0  0  0  0  0  0  0  0  0  0  0  0
   -3.9628   -3.4889   -1.4554 C   0  0  0  0  0  0  0  0  0  0  0  0
   -3.3064   -2.2879   -1.2554 C   0  0  0  0  0  0  0  0  0  0  0  0
   -1.9150   -2.2705   -1.1278 C   0  0  0  0  0  0  0  0  0  0  0  0
   -1.1350   -3.4528   -1.1718 C   0  0  0  0  0  0  0  0  0  0  0  0
   -1.7734   -7.4382   -1.8796 S   0  0  0  0  0  0  0  0  0  0  0  0
   -2.7402   -7.7361   -0.8430 O   0  0  0  0  0  0  0  0  0  0  0  0
   -2.1062   -7.4358   -3.2812 O   0  0  0  0  0  0  0  0  0  0  0  0
   -0.6039   -8.5302   -1.6501 O   0  0  0  0  0  0  0  0  0  0  0  0
    4.1722   -1.1384   -0.0658 C   0  0  0  0  0  0  0  0  0  0  0  0
    4.9120   -2.3461   -0.1151 C   0  0  0  0  0  0  0  0  0  0  0  0
    6.3130   -2.3536   -0.1303 C   0  0  0  0  0  0  0  0  0  0  0  0
    7.0034   -1.1453   -0.0974 C   0  0  0  0  0  0  0  0  0  0  0  0
    6.3142    0.0648   -0.0346 C   0  0  0  0  0  0  0  0  0  0  0  0
    4.9129    0.0770   -0.0251 C   0  0  0  0  0  0  0  0  0  0  0  0
    4.2477    1.3048    0.0140 C   0  0  0  0  0  0  0  0  0  0  0  0
    2.8551    1.3509    0.0358 C   0  0  0  0  0  0  0  0  0  0  0  0
    2.0709    2.9359    0.0014 S   0  0  0  0  0  0  0  0  0  0  0  0
    1.8383    3.3047    1.3813 O   0  0  0  0  0  0  0  0  0  0  0  0
    2.8408    3.7696   -0.8946 O   0  0  0  0  0  0  0  0  0  0  0  0
    0.6309    2.6882   -0.6900 O   0  0  0  0  0  0  0  0  0  0  0  0
    8.7753   -1.1242   -0.0900 S   0  0  0  0  0  0  0  0  0  0  0  0
    9.2324   -2.3473    0.5329 O   0  0  0  0  0  0  0  0  0  0  0  0
    9.2117   -0.7116   -1.4048 O   0  0  0  0  0  0  0  0  0  0  0  0
    9.1521    0.0422    0.9611 O   0  0  0  0  0  0  0  0  0  0  0  0
    0.4364   -0.6847    0.1534 H   0  0  0  0  0  0  0  0  0  0  0  0
    2.0807   -4.6458   -0.9426 H   0  0  0  0  0  0  0  0  0  0  0  0
    0.9539   -6.7516   -1.3796 H   0  0  0  0  0  0  0  0  0  0  0  0
   -3.7951   -5.5782   -1.7218 H   0  0  0  0  0  0  0  0  0  0  0  0
   -5.0455   -3.5169   -1.5489 H   0  0  0  0  0  0  0  0  0  0  0  0
   -3.8757   -1.3625   -1.2014 H   0  0  0  0  0  0  0  0  0  0  0  0
   -1.4439   -1.3001   -0.9966 H   0  0  0  0  0  0  0  0  0  0  0  0
   -0.8703   -9.0850   -0.8850 H   0  0  0  0  0  0  0  0  0  0  0  0
    4.3955   -3.3040   -0.1437 H   0  0  0  0  0  0  0  0  0  0  0  0
    6.8522   -3.2986   -0.1704 H   0  0  0  0  0  0  0  0  0  0  0  0
    6.8761    0.9983   -0.0038 H   0  0  0  0  0  0  0  0  0  0  0  0
    4.8117    2.2382    0.0246 H   0  0  0  0  0  0  0  0  0  0  0  0
    0.2361    1.8716   -0.3044 H   0  0  0  0  0  0  0  0  0  0  0  0
    9.5623   -0.3839    1.7431 H   0  0  0  0  0  0  0  0  0  0  0  0
  1  2  1  0  0  0  0
  1 36  1  0  0  0  0
  2  3  2  0  0  0  0
  2 27  1  0  0  0  0
  3  4  1  0  0  0  0
  3 20  1  0  0  0  0
  4  5  2  3  0  0  0
  5  6  1  0  0  0  0
  6  7  2  0  0  0  0
  6 15  1  0  0  0  0
  7  8  1  0  0  0  0
  7 37  1  0  0  0  0
  8  9  2  0  0  0  0
  8 38  1  0  0  0  0
  9 10  1  0  0  0  0
  9 16  1  0  0  0  0
 10 11  2  0  0  0  0
 10 15  1  0  0  0  0
 11 12  1  0  0  0  0
 11 39  1  0  0  0  0
 12 13  2  0  0  0  0
 12 40  1  0  0  0  0
 13 14  1  0  0  0  0
 13 41  1  0  0  0  0
 14 15  2  0  0  0  0
 14 42  1  0  0  0  0
 16 17  2  0  0  0  0
 16 18  2  0  0  0  0
 16 19  1  0  0  0  0
 19 43  1  0  0  0  0
 20 21  2  0  0  0  0
 20 25  1  0  0  0  0
 21 22  1  0  0  0  0
 21 44  1  0  0  0  0
 22 23  2  0  0  0  0
 22 45  1  0  0  0  0
 23 24  1  0  0  0  0
 23 32  1  0  0  0  0
 24 25  2  0  0  0  0
 24 46  1  0  0  0  0
 25 26  1  0  0  0  0
 26 27  2  0  0  0  0
 26 47  1  0  0  0  0
 27 28  1  0  0  0  0
 28 29  2  0  0  0  0
 28 30  2  0  0  0  0
 28 31  1  0  0  0  0
 31 48  1  0  0  0  0
 32 33  2  0  0  0  0
 32 34  2  0  0  0  0
 32 35  1  0  0  0  0
 35 49  1  0  0  0  0
M  END
$$$$

 OpenBabel12201709253D

 22 23  0  0  0  0  0  0  0  0999 V2000
   -1.4218   -0.0813    0.0997 C   0  0  0  0  0  0  0  0  0  0  0  0
   -0.8111    1.1641    0.0164 C   0  0  0  0  0  0  0  0  0  0  0  0
    0.5834    1.2556   -0.0825 C   0  0  0  0  0  0  0  0  0  0  0  0
    1.4019    0.1108   -0.0929 C   0  0  0  0  0  0  0  0  0  0  0  0
    0.7546   -1.1333    0.0166 C   0  0  0  0  0  0  0  0  0  0  0  0
   -0.6402   -1.2314    0.1021 C   0  0  0  0  0  0  0  0  0  0  0  0
    2.8745    0.2166   -0.2570 C   0  0  0  0  0  0  0  0  0  0  0  0
    3.5981    1.3119    0.2501 C   0  0  0  0  0  0  0  0  0  0  0  0
    4.9754    1.4415    0.0401 C   0  0  0  0  0  0  0  0  0  0  0  0
    5.6678    0.4653   -0.6683 C   0  0  0  0  0  0  0  0  0  0  0  0
    4.9844   -0.6404   -1.1615 C   0  0  0  0  0  0  0  0  0  0  0  0
    3.6047   -0.7589   -0.9615 C   0  0  0  0  0  0  0  0  0  0  0  0
   -2.5042   -0.1563    0.1597 H   0  0  0  0  0  0  0  0  0  0  0  0
   -1.4150    2.0679    0.0146 H   0  0  0  0  0  0  0  0  0  0  0  0
    1.0181    2.2494   -0.1784 H   0  0  0  0  0  0  0  0  0  0  0  0
    1.3308   -2.0552    0.0346 H   0  0  0  0  0  0  0  0  0  0  0  0
   -1.1109   -2.2086    0.1646 H   0  0  0  0  0  0  0  0  0  0  0  0
    3.0954    2.0876    0.8234 H   0  0  0  0  0  0  0  0  0  0  0  0
    5.5031    2.3079    0.4293 H   0  0  0  0  0  0  0  0  0  0  0  0
    6.7362    0.5674   -0.8379 H   0  0  0  0  0  0  0  0  0  0  0  0
    5.5183   -1.4086   -1.7141 H   0  0  0  0  0  0  0  0  0  0  0  0
    3.1019   -1.6231   -1.3895 H   0  0  0  0  0  0  0  0  0  0  0  0
  1  2  2  0  0  0  0
  1  6  1  0  0  0  0
  1 13  1  0  0  0  0
  2  3  1  0  0  0  0
  2 14  1  0  0  0  0
  3  4  2  0  0  0  0
  3 15  1  0  0  0  0
  4  5  1  0  0  0  0
  4  7  1  0  0  0  0
  5  6  2  0  0  0  0
  5 16  1  0  0  0  0
  6 17  1  0  0  0  0
  7  8  2  0  0  0  0
  7 12  1  0  0  0  0
  8  9  1  0  0  0  0
  8 18  1  0  0  0  0
  9 10  2  0  0  0  0
  9 19  1  0  0  0  0
 10 11  1  0  0  0  0
 10 20  1  0  0  0  0
 11 12  2  0  0  0  0
 11 21  1  0  0  0  0
 12 22  1  0  0  0  0
M  END
$$$$

 OpenBabel12201709253D

 27 27  0  0  0  0  0  0  0  0999 V2000
    0.8302   -0.3016   -0.7982 C   0  0  0  0  0  0  0  0  0  0  0  0
    2.3117   -0.0906   -0.9025 C   0  0  0  0  0  0  0  0  0  0  0  0
    2.8171    0.8877   -1.4318 O   0  0  0  0  0  0  0  0  0  0  0  0
    2.9776   -1.1555   -0.3916 O   0  0  0  0  0  0  0  0  0  0  0  0
    4.4014   -1.0374   -0.3986 C   0  0  0  0  0  0  0  0  0  0  0  0
    4.9191   -1.2202    0.9269 O   0  0  0  0  0  0  0  0  0  0  0  0
    4.8067   -0.1303    1.7226 C   0  0  0  0  0  0  0  0  0  0  0  0
    4.3208    0.9421    1.3984 O   0  0  0  0  0  0  0  0  0  0  0  0
    5.3134   -0.4352    3.0987 C   0  0  0  0  0  0  0  0  0  0  0  0
    4.9200   -2.2019   -1.2009 C   0  0  0  0  0  0  0  0  0  0  0  0
    5.7439   -3.2686   -0.8942 C   0  0  0  0  0  0  0  0  0  0  0  0
    5.9003   -4.0190   -2.0822 C   0  0  0  0  0  0  0  0  0  0  0  0
    5.1584   -3.3836   -3.0589 C   0  0  0  0  0  0  0  0  0  0  0  0
    4.5605   -2.2688   -2.5214 O   0  0  0  0  0  0  0  0  0  0  0  0
    5.0211   -3.7931   -4.4002 N   0  0  0  0  0  0  0  0  0  0  0  0
    5.5882   -4.7952   -4.7890 O   0  0  0  0  0  0  0  0  0  0  0  0
    4.2331   -3.0542   -5.2697 O   0  0  0  0  0  0  0  0  0  0  0  0
    0.3453    0.6469   -0.5505 H   0  0  0  0  0  0  0  0  0  0  0  0
    0.5942   -1.0134   -0.0018 H   0  0  0  0  0  0  0  0  0  0  0  0
    0.4537   -0.6806   -1.7508 H   0  0  0  0  0  0  0  0  0  0  0  0
    4.7935   -0.1121   -0.8400 H   0  0  0  0  0  0  0  0  0  0  0  0
    6.1662   -1.1180    3.0485 H   0  0  0  0  0  0  0  0  0  0  0  0
    4.5114   -0.8793    3.6924 H   0  0  0  0  0  0  0  0  0  0  0  0
    5.6554    0.4903    3.5699 H   0  0  0  0  0  0  0  0  0  0  0  0
    6.1909   -3.4703    0.0703 H   0  0  0  0  0  0  0  0  0  0  0  0
    6.4836   -4.9196   -2.2228 H   0  0  0  0  0  0  0  0  0  0  0  0
    3.9333   -2.3358   -4.6892 H   0  0  0  0  0  0  0  0  0  0  0  0
  1  2  1  0  0  0  0
  1 18  1  0  0  0  0
  1 19  1  0  0  0  0
  1 20  1  0  0  0  0
  2  3  2  0  0  0  0
  2  4  1  0  0  0  0
  4  5  1  0  0  0  0
  5  6  1  0  0  0  0
  5 10  1  0  0  0  0
  5 21  1  0  0  0  0
  6  7  1  0  0  0  0
  7  8  2  0  0  0  0
  7  9  1  0  0  0  0
  9 22  1  0  0  0  0
  9 23  1  0  0  0  0
  9 24  1  0  0  0  0
 10 11  2  0  0  0  0
 10 14  1  0  0  0  0
 11 12  1  0  0  0  0
 11 25  1  0  0  0  0
 12 13  2  0  0  0  0
 12 26  1  0  0  0  0
 13 14  1  0  0  0  0
 13 15  1  0  0  0  0
 15 16  2  0  0  0  0
 15 17  1  0  0  0  0
 17 27  1  0  0  0  0
M  END
$$$$

 OpenBabel12201709253D

 24 25  0  0  0  0  0  0  0  0999 V2000
    0.9894    0.0476    0.4077 N   0  0  0  0  0  0  0  0  0  0  0  0
    2.3566    0.0802    0.1123 C   0  0  0  0  0  0  0  0  0  0  0  0
    3.0368    1.2938    0.0488 C   0  0  0  0  0  0  0  0  0  0  0  0
    4.4194    1.3303   -0.1720 C   0  0  0  0  0  0  0  0  0  0  0  0
    5.1810    0.1534   -0.2809 C   0  0  0  0  0  0  0  0  0  0  0  0
    4.4923   -1.0598   -0.1068 C   0  0  0  0  0  0  0  0  0  0  0  0
    3.1059   -1.0948    0.1000 C   0  0  0  0  0  0  0  0  0  0  0  0
    6.6313    0.1929   -0.5929 C   0  0  0  0  0  0  0  0  0  0  0  0
    7.4559    1.2492   -0.1623 C   0  0  0  0  0  0  0  0  0  0  0  0
    8.8075    1.3193   -0.5201 C   0  0  0  0  0  0  0  0  0  0  0  0
    9.3731    0.3202   -1.3070 C   0  0  0  0  0  0  0  0  0  0  0  0
    8.5908   -0.7486   -1.7278 C   0  0  0  0  0  0  0  0  0  0  0  0
    7.2374   -0.8079   -1.3779 C   0  0  0  0  0  0  0  0  0  0  0  0
    0.4904    0.8742    0.0919 H   0  0  0  0  0  0  0  0  0  0  0  0
    0.5332   -0.8081    0.1072 H   0  0  0  0  0  0  0  0  0  0  0  0
    2.4953    2.2308    0.1482 H   0  0  0  0  0  0  0  0  0  0  0  0
    4.8897    2.3050   -0.2749 H   0  0  0  0  0  0  0  0  0  0  0  0
    5.0287   -2.0061   -0.1216 H   0  0  0  0  0  0  0  0  0  0  0  0
    2.6184   -2.0555    0.2403 H   0  0  0  0  0  0  0  0  0  0  0  0
    7.0549    2.0422    0.4654 H   0  0  0  0  0  0  0  0  0  0  0  0
    9.4135    2.1570   -0.1879 H   0  0  0  0  0  0  0  0  0  0  0  0
   10.4202    0.3763   -1.5913 H   0  0  0  0  0  0  0  0  0  0  0  0
    9.0256   -1.5330   -2.3412 H   0  0  0  0  0  0  0  0  0  0  0  0
    6.6515   -1.6437   -1.7540 H   0  0  0  0  0  0  0  0  0  0  0  0
  1  2  1  0  0  0  0
  1 14  1  0  0  0  0
  1 15  1  0  0  0  0
  2  3  2  0  0  0  0
  2  7  1  0  0  0  0
  3  4  1  0  0  0  0
  3 16  1  0  0  0  0
  4  5  2  0  0  0  0
  4 17  1  0  0  0  0
  5  6  1  0  0  0  0
  5  8  1  0  0  0  0
  6  7  2  0  0  0  0
  6 18  1  0  0  0  0
  7 19  1  0  0  0  0
  8  9  2  0  0  0  0
  8 13  1  0  0  0  0
  9 10  1  0  0  0  0
  9 20  1  0  0  0  0
 10 11  2  0  0  0  0
 10 21  1  0  0  0  0
 11 12  1  0  0  0  0
 11 22  1  0  0  0  0
 12 13  2  0  0  0  0
 12 23  1  0  0  0  0
 13 24  1  0  0  0  0
M  END
$$$$

 OpenBabel12201709253D

 23 25  0  0  0  0  0  0  0  0999 V2000
   -0.0026    1.2405   -0.0209 N   0  0  0  0  0  0  0  0  0  0  0  0
    1.2543    0.6139    0.0018 C   0  0  0  0  0  0  0  0  0  0  0  0
    2.4120    1.4090   -0.0041 C   0  0  0  0  0  0  0  0  0  0  0  0
    3.6831    0.8303   -0.0015 C   0  0  0  0  0  0  0  0  0  0  0  0
    3.8151   -0.5539    0.0020 C   0  0  0  0  0  0  0  0  0  0  0  0
    2.6744   -1.3577    0.0018 C   0  0  0  0  0  0  0  0  0  0  0  0
    1.3934   -0.7844   -0.0003 C   0  0  0  0  0  0  0  0  0  0  0  0
   -0.0028   -1.8966   -0.0049 S   0  0  0  0  0  0  0  0  0  0  0  0
   -1.3991   -0.7846    0.0002 C   0  0  0  0  0  0  0  0  0  0  0  0
   -2.6803   -1.3574    0.0032 C   0  0  0  0  0  0  0  0  0  0  0  0
   -3.8199   -0.5536    0.0035 C   0  0  0  0  0  0  0  0  0  0  0  0
   -3.6883    0.8305    0.0000 C   0  0  0  0  0  0  0  0  0  0  0  0
   -2.4171    1.4090   -0.0034 C   0  0  0  0  0  0  0  0  0  0  0  0
   -1.2595    0.6138    0.0021 C   0  0  0  0  0  0  0  0  0  0  0  0
   -0.0027    2.2483    0.0483 H   0  0  0  0  0  0  0  0  0  0  0  0
    2.3320    2.4930   -0.0112 H   0  0  0  0  0  0  0  0  0  0  0  0
    4.5681    1.4614   -0.0043 H   0  0  0  0  0  0  0  0  0  0  0  0
    4.8011   -1.0103    0.0020 H   0  0  0  0  0  0  0  0  0  0  0  0
    2.7913   -2.4391    0.0013 H   0  0  0  0  0  0  0  0  0  0  0  0
   -2.7970   -2.4389    0.0033 H   0  0  0  0  0  0  0  0  0  0  0  0
   -4.8064   -1.0098    0.0041 H   0  0  0  0  0  0  0  0  0  0  0  0
   -4.5732    1.4618   -0.0030 H   0  0  0  0  0  0  0  0  0  0  0  0
   -2.3371    2.4929   -0.0107 H   0  0  0  0  0  0  0  0  0  0  0  0
  1  2  1  0  0  0  0
  1 14  1  0  0  0  0
  1 15  1  0  0  0  0
  2  3  2  0  0  0  0
  2  7  1  0  0  0  0
  3  4  1  0  0  0  0
  3 16  1  0  0  0  0
  4  5  2  0  0  0  0
  4 17  1  0  0  0  0
  5  6  1  0  0  0  0
  5 18  1  0  0  0  0
  6  7  2  0  0  0  0
  6 19  1  0  0  0  0
  7  8  1  0  0  0  0
  8  9  1  0  0  0  0
  9 10  2  0  0  0  0
  9 14  1  0  0  0  0
 10 11  1  0  0  0  0
 10 20  1  0  0  0  0
 11 12  2  0  0  0  0
 11 21  1  0  0  0  0
 12 13  1  0  0  0  0
 12 22  1  0  0  0  0
 13 14  2  0  0  0  0
 13 23  1  0  0  0  0
M  END
$$$$

 OpenBabel12201709253D

 26 27  0  0  0  0  0  0  0  0999 V2000
    1.0524   -0.0239    0.2352 N   0  0  0  0  0  0  0  0  0  0  0  0
    2.4199    0.0101   -0.0600 C   0  0  0  0  0  0  0  0  0  0  0  0
    3.0972    1.2250   -0.1249 C   0  0  0  0  0  0  0  0  0  0  0  0
    4.4805    1.2635   -0.3467 C   0  0  0  0  0  0  0  0  0  0  0  0
    5.2436    0.0876   -0.4561 C   0  0  0  0  0  0  0  0  0  0  0  0
    4.5577   -1.1262   -0.2795 C   0  0  0  0  0  0  0  0  0  0  0  0
    3.1712   -1.1628   -0.0717 C   0  0  0  0  0  0  0  0  0  0  0  0
    6.6915    0.1317   -0.7779 C   0  0  0  0  0  0  0  0  0  0  0  0
    7.5141    1.1927   -0.3579 C   0  0  0  0  0  0  0  0  0  0  0  0
    8.8596    1.2764   -0.7462 C   0  0  0  0  0  0  0  0  0  0  0  0
    9.4196    0.3190   -1.5894 C   0  0  0  0  0  0  0  0  0  0  0  0
   10.7821    0.3593   -1.9053 N   0  0  0  0  0  0  0  0  0  0  0  0
    8.6505   -0.7917   -1.9253 C   0  0  0  0  0  0  0  0  0  0  0  0
    7.3030   -0.8708   -1.5488 C   0  0  0  0  0  0  0  0  0  0  0  0
    0.5512    0.8010   -0.0797 H   0  0  0  0  0  0  0  0  0  0  0  0
    0.5979   -0.8809   -0.0648 H   0  0  0  0  0  0  0  0  0  0  0  0
    2.5543    2.1612   -0.0266 H   0  0  0  0  0  0  0  0  0  0  0  0
    4.9485    2.2397   -0.4510 H   0  0  0  0  0  0  0  0  0  0  0  0
    5.0947   -2.0719   -0.2943 H   0  0  0  0  0  0  0  0  0  0  0  0
    2.6855   -2.1248    0.0689 H   0  0  0  0  0  0  0  0  0  0  0  0
    7.1224    1.9755    0.2893 H   0  0  0  0  0  0  0  0  0  0  0  0
    9.4592    2.1093   -0.3908 H   0  0  0  0  0  0  0  0  0  0  0  0
   11.1613    1.3010   -1.9319 H   0  0  0  0  0  0  0  0  0  0  0  0
   11.0182   -0.1676   -2.7409 H   0  0  0  0  0  0  0  0  0  0  0  0
    9.0828   -1.6032   -2.5046 H   0  0  0  0  0  0  0  0  0  0  0  0
    6.7326   -1.7320   -1.8897 H   0  0  0  0  0  0  0  0  0  0  0  0
  1  2  1  0  0  0  0
  1 15  1  0  0  0  0
  1 16  1  0  0  0  0
  2  3  2  0  0  0  0
  2  7  1  0  0  0  0
  3  4  1  0  0  0  0
  3 17  1  0  0  0  0
  4  5  2  0  0  0  0
  4 18  1  0  0  0  0
  5  6  1  0  0  0  0
  5  8  1  0  0  0  0
  6  7  2  0  0  0  0
  6 19  1  0  0  0  0
  7 20  1  0  0  0  0
  8  9  2  0  0  0  0
  8 14  1  0  0  0  0
  9 10  1  0  0  0  0
  9 21  1  0  0  0  0
 10 11  2  0  0  0  0
 10 22  1  0  0  0  0
 11 12  1  0  0  0  0
 11 13  1  0  0  0  0
 12 23  1  0  0  0  0
 12 24  1  0  0  0  0
 13 14  2  0  0  0  0
 13 25  1  0  0  0  0
 14 26  1  0  0  0  0
M  END
$$$$

 OpenBabel12201709253D

 29 28  0  0  0  0  0  0  0  0999 V2000
    0.8851   -0.4619    1.4410 C   0  0  0  0  0  0  0  0  0  0  0  0
    2.3077   -0.8975    1.7623 C   0  0  0  0  0  0  0  0  0  0  0  0
    3.1308   -1.0566    0.4823 C   0  0  0  0  0  0  0  0  0  0  0  0
    4.6213   -1.3349    0.7264 C   0  0  0  0  0  0  0  0  0  0  0  0
    5.1037   -2.7169    0.9294 N   0  0  0  0  0  0  0  0  0  0  0  0
    4.2120   -3.6441    1.6448 C   0  0  0  0  0  0  0  0  0  0  0  0
    4.7237   -5.0956    1.5000 C   0  0  0  0  0  0  0  0  0  0  0  0
    3.7879   -6.1607    2.0724 C   0  0  0  0  0  0  0  0  0  0  0  0
    4.3922   -7.5456    1.8627 C   0  0  0  0  0  0  0  0  0  0  0  0
    6.3492   -2.7664    1.3713 N   0  0  0  0  0  0  0  0  0  0  0  0
    7.1338   -2.2507    0.5748 O   0  0  0  0  0  0  0  0  0  0  0  0
    0.2936   -0.3842    2.3585 H   0  0  0  0  0  0  0  0  0  0  0  0
    0.3956   -1.1817    0.7775 H   0  0  0  0  0  0  0  0  0  0  0  0
    0.8776    0.5172    0.9500 H   0  0  0  0  0  0  0  0  0  0  0  0
    2.2748   -1.8306    2.3296 H   0  0  0  0  0  0  0  0  0  0  0  0
    2.7698   -0.1432    2.4106 H   0  0  0  0  0  0  0  0  0  0  0  0
    3.0677   -0.1083   -0.0707 H   0  0  0  0  0  0  0  0  0  0  0  0
    2.6941   -1.8166   -0.1754 H   0  0  0  0  0  0  0  0  0  0  0  0
    4.9586   -0.6850    1.5458 H   0  0  0  0  0  0  0  0  0  0  0  0
    5.1289   -0.9681   -0.1788 H   0  0  0  0  0  0  0  0  0  0  0  0
    3.2088   -3.6197    1.2067 H   0  0  0  0  0  0  0  0  0  0  0  0
    4.1234   -3.3789    2.7067 H   0  0  0  0  0  0  0  0  0  0  0  0
    5.6934   -5.1988    2.0002 H   0  0  0  0  0  0  0  0  0  0  0  0
    4.8870   -5.3093    0.4369 H   0  0  0  0  0  0  0  0  0  0  0  0
    2.8115   -6.1130    1.5782 H   0  0  0  0  0  0  0  0  0  0  0  0
    3.6284   -5.9917    3.1430 H   0  0  0  0  0  0  0  0  0  0  0  0
    4.5497   -7.7463    0.7973 H   0  0  0  0  0  0  0  0  0  0  0  0
    3.7329   -8.3227    2.2602 H   0  0  0  0  0  0  0  0  0  0  0  0
    5.3607   -7.6310    2.3674 H   0  0  0  0  0  0  0  0  0  0  0  0
  1  2  1  0  0  0  0
  1 12  1  0  0  0  0
  1 13  1  0  0  0  0
  1 14  1  0  0  0  0
  2  3  1  0  0  0  0
  2 15  1  0  0  0  0
  2 16  1  0  0  0  0
  3  4  1  0  0  0  0
  3 17  1  0  0  0  0
  3 18  1  0  0  0  0
  4  5  1  0  0  0  0
  4 19  1  0  0  0  0
  4 20  1  0  0  0  0
  5  6  1  0  0  0  0
  5 10  1  0  0  0  0
  6  7  1  0  0  0  0
  6 21  1  0  0  0  0
  6 22  1  0  0  0  0
  7  8  1  0  0  0  0
  7 23  1  0  0  0  0
  7 24  1  0  0  0  0
  8  9  1  0  0  0  0
  8 25  1  0  0  0  0
  8 26  1  0  0  0  0
  9 27  1  0  0  0  0
  9 28  1  0  0  0  0
  9 29  1  0  0  0  0
 10 11  2  0  0  0  0
M  END
$$$$

 OpenBabel12201709253D

 14 13  0  0  0  0  0  0  0  0999 V2000
    1.0351    0.1125   -0.2274 O   0  0  0  0  0  0  0  0  0  0  0  0
    2.4316   -0.0083   -0.1008 C   0  0  0  0  0  0  0  0  0  0  0  0
    2.9798    0.8884   -1.0551 N   0  0  0  0  0  0  0  0  0  0  0  0
    4.3332    1.0148   -1.1896 C   0  0  0  0  0  0  0  0  0  0  0  0
    5.1458    0.3871   -0.5230 O   0  0  0  0  0  0  0  0  0  0  0  0
    4.7293    1.9949   -2.2311 C   0  0  0  0  0  0  0  0  0  0  0  0
    6.0246    2.2290   -2.4777 C   0  0  0  0  0  0  0  0  0  0  0  0
    0.6567   -0.5004    0.4255 H   0  0  0  0  0  0  0  0  0  0  0  0
    2.7488   -1.0309   -0.3256 H   0  0  0  0  0  0  0  0  0  0  0  0
    2.7503    0.2784    0.9057 H   0  0  0  0  0  0  0  0  0  0  0  0
    2.3229    1.4124   -1.6113 H   0  0  0  0  0  0  0  0  0  0  0  0
    3.9550    2.5123   -2.7823 H   0  0  0  0  0  0  0  0  0  0  0  0
    6.8076    1.7128   -1.9276 H   0  0  0  0  0  0  0  0  0  0  0  0
    6.3302    2.9420   -3.2351 H   0  0  0  0  0  0  0  0  0  0  0  0
  1  2  1  0  0  0  0
  1  8  1  0  0  0  0
  2  3  1  0  0  0  0
  2  9  1  0  0  0  0
  2 10  1  0  0  0  0
  3  4  1  0  0  0  0
  3 11  1  0  0  0  0
  4  5  2  0  0  0  0
  4  6  1  0  0  0  0
  6  7  2  0  0  0  0
  6 12  1  0  0  0  0
  7 13  1  0  0  0  0
  7 14  1  0  0  0  0
M  END
$$$$

 OpenBabel12201709253D

 48 52  0  0  0  0  0  0  0  0999 V2000
    1.1465   -0.0733    0.2403 N   0  0  0  0  0  0  0  0  0  0  0  0
    0.3232   -1.2144    0.2747 C   0  0  0  0  0  0  0  0  0  0  0  0
    0.8654   -2.4856    0.4826 C   0  0  0  0  0  0  0  0  0  0  0  0
    0.1063   -3.6381    0.2908 C   0  0  0  0  0  0  0  0  0  0  0  0
   -1.2372   -3.5631   -0.0809 C   0  0  0  0  0  0  0  0  0  0  0  0
   -2.0257   -4.7140   -0.2939 N   0  0  0  0  0  0  0  0  0  0  0  0
   -1.7346   -6.0484    0.0566 C   0  0  0  0  0  0  0  0  0  0  0  0
   -1.1561   -6.3488    1.2933 C   0  0  0  0  0  0  0  0  0  0  0  0
   -0.7610   -7.6445    1.6152 C   0  0  0  0  0  0  0  0  0  0  0  0
   -0.9666   -8.6897    0.7117 C   0  0  0  0  0  0  0  0  0  0  0  0
   -0.5901   -9.9987    1.0397 C   0  0  0  0  0  0  0  0  0  0  0  0
   -0.8446  -11.0542    0.1648 C   0  0  0  0  0  0  0  0  0  0  0  0
   -1.4705  -10.8060   -1.0529 C   0  0  0  0  0  0  0  0  0  0  0  0
   -1.8291   -9.5006   -1.4055 C   0  0  0  0  0  0  0  0  0  0  0  0
   -1.5898   -8.4226   -0.5301 C   0  0  0  0  0  0  0  0  0  0  0  0
   -1.9480   -7.0964   -0.8497 C   0  0  0  0  0  0  0  0  0  0  0  0
   -1.8136   -2.2904   -0.1813 C   0  0  0  0  0  0  0  0  0  0  0  0
   -1.0407   -1.1277   -0.0154 C   0  0  0  0  0  0  0  0  0  0  0  0
    2.4892    0.0172   -0.1889 C   0  0  0  0  0  0  0  0  0  0  0  0
    3.0522   -0.9329   -1.0520 C   0  0  0  0  0  0  0  0  0  0  0  0
    4.4150   -0.9393   -1.3435 C   0  0  0  0  0  0  0  0  0  0  0  0
    5.2554    0.0345   -0.8026 C   0  0  0  0  0  0  0  0  0  0  0  0
    6.6308    0.0259   -1.0765 C   0  0  0  0  0  0  0  0  0  0  0  0
    7.4608    1.0217   -0.5655 C   0  0  0  0  0  0  0  0  0  0  0  0
    6.9237    2.0302    0.2290 C   0  0  0  0  0  0  0  0  0  0  0  0
    5.5605    2.0340    0.5329 C   0  0  0  0  0  0  0  0  0  0  0  0
    4.7062    1.0388    0.0274 C   0  0  0  0  0  0  0  0  0  0  0  0
    3.3288    1.0087    0.3334 C   0  0  0  0  0  0  0  0  0  0  0  0
    0.6784    0.8167    0.3606 H   0  0  0  0  0  0  0  0  0  0  0  0
    1.9092   -2.5970    0.7673 H   0  0  0  0  0  0  0  0  0  0  0  0
    0.6104   -4.5948    0.3896 H   0  0  0  0  0  0  0  0  0  0  0  0
   -2.6866   -4.6107   -1.0559 H   0  0  0  0  0  0  0  0  0  0  0  0
   -1.0011   -5.5602    2.0260 H   0  0  0  0  0  0  0  0  0  0  0  0
   -0.2981   -7.8291    2.5797 H   0  0  0  0  0  0  0  0  0  0  0  0
   -0.0967  -10.2084    1.9867 H   0  0  0  0  0  0  0  0  0  0  0  0
   -0.5582  -12.0663    0.4386 H   0  0  0  0  0  0  0  0  0  0  0  0
   -1.6820  -11.6302   -1.7292 H   0  0  0  0  0  0  0  0  0  0  0  0
   -2.3093   -9.3322   -2.3664 H   0  0  0  0  0  0  0  0  0  0  0  0
   -2.3778   -6.8817   -1.8262 H   0  0  0  0  0  0  0  0  0  0  0  0
   -2.8726   -2.1898   -0.4054 H   0  0  0  0  0  0  0  0  0  0  0  0
   -1.5135   -0.1587   -0.1487 H   0  0  0  0  0  0  0  0  0  0  0  0
    2.4275   -1.6938   -1.5132 H   0  0  0  0  0  0  0  0  0  0  0  0
    4.8067   -1.7155   -1.9960 H   0  0  0  0  0  0  0  0  0  0  0  0
    7.0643   -0.7595   -1.6919 H   0  0  0  0  0  0  0  0  0  0  0  0
    8.5234    1.0095   -0.7918 H   0  0  0  0  0  0  0  0  0  0  0  0
    7.5680    2.8146    0.6169 H   0  0  0  0  0  0  0  0  0  0  0  0
    5.1649    2.8244    1.1664 H   0  0  0  0  0  0  0  0  0  0  0  0
    2.9168    1.7486    1.0159 H   0  0  0  0  0  0  0  0  0  0  0  0
  1  2  1  0  0  0  0
  1 19  1  0  0  0  0
  1 29  1  0  0  0  0
  2  3  2  0  0  0  0
  2 18  1  0  0  0  0
  3  4  1  0  0  0  0
  3 30  1  0  0  0  0
  4  5  2  0  0  0  0
  4 31  1  0  0  0  0
  5  6  1  0  0  0  0
  5 17  1  0  0  0  0
  6  7  1  0  0  0  0
  6 32  1  0  0  0  0
  7  8  2  0  0  0  0
  7 16  1  0  0  0  0
  8  9  1  0  0  0  0
  8 33  1  0  0  0  0
  9 10  2  0  0  0  0
  9 34  1  0  0  0  0
 10 11  1  0  0  0  0
 10 15  1  0  0  0  0
 11 12  2  0  0  0  0
 11 35  1  0  0  0  0
 12 13  1  0  0  0  0
 12 36  1  0  0  0  0
 13 14  2  0  0  0  0
 13 37  1  0  0  0  0
 14 15  1  0  0  0  0
 14 38  1  0  0  0  0
 15 16  2  0  0  0  0
 16 39  1  0  0  0  0
 17 18  2  0  0  0  0
 17 40  1  0  0  0  0
 18 41  1  0  0  0  0
 19 20  2  0  0  0  0
 19 28  1  0  0  0  0
 20 21  1  0  0  0  0
 20 42  1  0  0  0  0
 21 22  2  0  0  0  0
 21 43  1  0  0  0  0
 22 23  1  0  0  0  0
 22 27  1  0  0  0  0
 23 24  2  0  0  0  0
 23 44  1  0  0  0  0
 24 25  1  0  0  0  0
 24 45  1  0  0  0  0
 25 26  2  0  0  0  0
 25 46  1  0  0  0  0
 26 27  1  0  0  0  0
 26 47  1  0  0  0  0
 27 28  2  0  0  0  0
 28 48  1  0  0  0  0
M  END
$$$$

 OpenBabel12201709253D

 19 19  0  0  0  0  0  0  0  0999 V2000
    3.0009    1.0089   -0.3359 O   0  0  0  0  0  0  0  0  0  0  0  0
    2.3653   -0.1777   -0.1705 C   0  0  0  0  0  0  0  0  0  0  0  0
    1.1731   -0.2556    0.0862 O   0  0  0  0  0  0  0  0  0  0  0  0
    3.2780   -1.3841   -0.3324 C   0  0  0  0  0  0  0  0  0  0  0  0
    4.6115   -0.9815   -0.6617 O   0  0  0  0  0  0  0  0  0  0  0  0
    5.3731   -1.8799   -1.3709 C   0  0  0  0  0  0  0  0  0  0  0  0
    6.2898   -1.2600   -2.2359 C   0  0  0  0  0  0  0  0  0  0  0  0
    7.1343   -2.0159   -3.0578 C   0  0  0  0  0  0  0  0  0  0  0  0
    8.2267   -1.1674   -4.0915 Cl  0  0  0  0  0  0  0  0  0  0  0  0
    7.0720   -3.4091   -3.0196 C   0  0  0  0  0  0  0  0  0  0  0  0
    8.0557   -4.4143   -4.0217 Cl  0  0  0  0  0  0  0  0  0  0  0  0
    6.1947   -4.0364   -2.1341 C   0  0  0  0  0  0  0  0  0  0  0  0
    5.3640   -3.2816   -1.2948 C   0  0  0  0  0  0  0  0  0  0  0  0
    4.4365   -4.1924   -0.1573 Cl  0  0  0  0  0  0  0  0  0  0  0  0
    3.9524    0.8584   -0.5197 H   0  0  0  0  0  0  0  0  0  0  0  0
    2.8428   -2.0007   -1.1267 H   0  0  0  0  0  0  0  0  0  0  0  0
    3.2908   -1.8873    0.6381 H   0  0  0  0  0  0  0  0  0  0  0  0
    6.3424   -0.1731   -2.2748 H   0  0  0  0  0  0  0  0  0  0  0  0
    6.1681   -5.1238   -2.0850 H   0  0  0  0  0  0  0  0  0  0  0  0
  1  2  1  0  0  0  0
  1 15  1  0  0  0  0
  2  3  2  0  0  0  0
  2  4  1  0  0  0  0
  4  5  1  0  0  0  0
  4 16  1  0  0  0  0
  4 17  1  0  0  0  0
  5  6  1  0  0  0  0
  6  7  2  0  0  0  0
  6 13  1  0  0  0  0
  7  8  1  0  0  0  0
  7 18  1  0  0  0  0
  8  9  1  0  0  0  0
  8 10  2  0  0  0  0
 10 11  1  0  0  0  0
 10 12  1  0  0  0  0
 12 13  2  0  0  0  0
 12 19  1  0  0  0  0
 13 14  1  0  0  0  0
M  END
$$$$

 OpenBabel12201709253D

 15 15  0  0  0  0  0  0  0  0999 V2000
    2.7516   -1.0376    0.0739 O   0  0  0  0  0  0  0  0  0  0  0  0
    2.2321   -0.0408    0.5880 N   0  0  0  0  0  0  0  0  0  0  0  0
    3.1152    0.9075    0.7852 N   0  0  0  0  0  0  0  0  0  0  0  0
    2.5563    2.1305    1.3636 C   0  0  0  0  0  0  0  0  0  0  0  0
    3.8042    2.9369    1.6721 C   0  0  0  0  0  0  0  0  0  0  0  0
    4.8129    1.8949    2.1296 C   0  0  0  0  0  0  0  0  0  0  0  0
    4.2717    0.5596    1.6240 C   0  0  0  0  0  0  0  0  0  0  0  0
    1.9974    1.9305    2.2879 H   0  0  0  0  0  0  0  0  0  0  0  0
    1.9024    2.6649    0.6654 H   0  0  0  0  0  0  0  0  0  0  0  0
    3.6292    3.7052    2.4308 H   0  0  0  0  0  0  0  0  0  0  0  0
    4.1705    3.4339    0.7649 H   0  0  0  0  0  0  0  0  0  0  0  0
    4.8844    1.8843    3.2231 H   0  0  0  0  0  0  0  0  0  0  0  0
    5.8078    2.1130    1.7276 H   0  0  0  0  0  0  0  0  0  0  0  0
    3.9863   -0.0622    2.4833 H   0  0  0  0  0  0  0  0  0  0  0  0
    5.0356    0.0211    1.0518 H   0  0  0  0  0  0  0  0  0  0  0  0
  1  2  2  0  0  0  0
  2  3  1  0  0  0  0
  3  4  1  0  0  0  0
  3  7  1  0  0  0  0
  4  5  1  0  0  0  0
  4  8  1  0  0  0  0
  4  9  1  0  0  0  0
  5  6  1  0  0  0  0
  5 10  1  0  0  0  0
  5 11  1  0  0  0  0
  6  7  1  0  0  0  0
  6 12  1  0  0  0  0
  6 13  1  0  0  0  0
  7 14  1  0  0  0  0
  7 15  1  0  0  0  0
M  END
$$$$

 OpenBabel12201709253D

 21 21  0  0  0  0  0  0  0  0999 V2000
    2.4757    0.8079    0.0277 O   0  0  0  0  0  0  0  0  0  0  0  0
    2.4665   -0.4255    0.0996 N   0  0  0  0  0  0  0  0  0  0  0  0
    2.8166   -0.9672   -1.0465 N   0  0  0  0  0  0  0  0  0  0  0  0
    2.3589   -2.3484   -1.2106 C   0  0  0  0  0  0  0  0  0  0  0  0
    3.2273   -3.4676   -0.6200 C   0  0  0  0  0  0  0  0  0  0  0  0
    4.5148   -3.6919   -1.4062 C   0  0  0  0  0  0  0  0  0  0  0  0
    5.6654   -2.7702   -1.0183 C   0  0  0  0  0  0  0  0  0  0  0  0
    5.2965   -1.3396   -0.6375 C   0  0  0  0  0  0  0  0  0  0  0  0
    4.1930   -0.7083   -1.4966 C   0  0  0  0  0  0  0  0  0  0  0  0
    2.2278   -2.5352   -2.2851 H   0  0  0  0  0  0  0  0  0  0  0  0
    1.3465   -2.4512   -0.7941 H   0  0  0  0  0  0  0  0  0  0  0  0
    2.6407   -4.3941   -0.6722 H   0  0  0  0  0  0  0  0  0  0  0  0
    3.4340   -3.2965    0.4426 H   0  0  0  0  0  0  0  0  0  0  0  0
    4.3156   -3.5945   -2.4798 H   0  0  0  0  0  0  0  0  0  0  0  0
    4.8483   -4.7276   -1.2605 H   0  0  0  0  0  0  0  0  0  0  0  0
    6.3773   -2.7485   -1.8537 H   0  0  0  0  0  0  0  0  0  0  0  0
    6.2129   -3.2158   -0.1772 H   0  0  0  0  0  0  0  0  0  0  0  0
    6.2035   -0.7265   -0.7240 H   0  0  0  0  0  0  0  0  0  0  0  0
    5.0277   -1.3026    0.4247 H   0  0  0  0  0  0  0  0  0  0  0  0
    4.3030   -1.0224   -2.5426 H   0  0  0  0  0  0  0  0  0  0  0  0
    4.3643    0.3771   -1.5206 H   0  0  0  0  0  0  0  0  0  0  0  0
  1  2  2  0  0  0  0
  2  3  1  0  0  0  0
  3  4  1  0  0  0  0
  3  9  1  0  0  0  0
  4  5  1  0  0  0  0
  4 10  1  0  0  0  0
  4 11  1  0  0  0  0
  5  6  1  0  0  0  0
  5 12  1  0  0  0  0
  5 13  1  0  0  0  0
  6  7  1  0  0  0  0
  6 14  1  0  0  0  0
  6 15  1  0  0  0  0
  7  8  1  0  0  0  0
  7 16  1  0  0  0  0
  7 17  1  0  0  0  0
  8  9  1  0  0  0  0
  8 18  1  0  0  0  0
  8 19  1  0  0  0  0
  9 20  1  0  0  0  0
  9 21  1  0  0  0  0
M  END
$$$$

 OpenBabel12201709253D

 30 30  0  0  0  0  0  0  0  0999 V2000
    3.1028    1.1436   -1.9903 C   0  0  0  0  0  0  0  0  0  0  0  0
    2.6597    1.8899   -0.7408 C   0  0  0  0  0  0  0  0  0  0  0  0
    3.2717    1.3155    0.5346 C   0  0  0  0  0  0  0  0  0  0  0  0
    4.7102    1.4922    0.5996 N   0  0  0  0  0  0  0  0  0  0  0  0
    5.2538    2.6647    1.0366 C   0  0  0  0  0  0  0  0  0  0  0  0
    4.5929    3.6143    1.4198 O   0  0  0  0  0  0  0  0  0  0  0  0
    6.6371    2.6564    1.0402 N   0  0  0  0  0  0  0  0  0  0  0  0
    7.5665    3.9039    1.6345 S   0  0  0  0  0  0  0  0  0  0  0  0
    8.8947    3.3505    1.8118 O   0  0  0  0  0  0  0  0  0  0  0  0
    7.3550    5.0737    0.8134 O   0  0  0  0  0  0  0  0  0  0  0  0
    6.9138    4.1971    3.2631 C   0  0  0  0  0  0  0  0  0  0  0  0
    6.9876    3.1836    4.2237 C   0  0  0  0  0  0  0  0  0  0  0  0
    6.4470    3.3999    5.4947 C   0  0  0  0  0  0  0  0  0  0  0  0
    5.8509    4.6257    5.7963 C   0  0  0  0  0  0  0  0  0  0  0  0
    5.1749    4.8827    7.3581 Cl  0  0  0  0  0  0  0  0  0  0  0  0
    5.7968    5.6429    4.8430 C   0  0  0  0  0  0  0  0  0  0  0  0
    6.3305    5.4317    3.5689 C   0  0  0  0  0  0  0  0  0  0  0  0
    2.6081    1.5600   -2.8732 H   0  0  0  0  0  0  0  0  0  0  0  0
    2.8424    0.0825   -1.9244 H   0  0  0  0  0  0  0  0  0  0  0  0
    4.1837    1.2253   -2.1402 H   0  0  0  0  0  0  0  0  0  0  0  0
    1.5677    1.8296   -0.6653 H   0  0  0  0  0  0  0  0  0  0  0  0
    2.9165    2.9507   -0.8444 H   0  0  0  0  0  0  0  0  0  0  0  0
    3.0667    0.2423    0.6184 H   0  0  0  0  0  0  0  0  0  0  0  0
    2.8232    1.8094    1.4026 H   0  0  0  0  0  0  0  0  0  0  0  0
    5.3067    0.7823    0.2023 H   0  0  0  0  0  0  0  0  0  0  0  0
    7.1735    1.8282    0.8156 H   0  0  0  0  0  0  0  0  0  0  0  0
    7.4542    2.2295    3.9925 H   0  0  0  0  0  0  0  0  0  0  0  0
    6.4892    2.6128    6.2429 H   0  0  0  0  0  0  0  0  0  0  0  0
    5.3334    6.5977    5.0808 H   0  0  0  0  0  0  0  0  0  0  0  0
    6.2725    6.2213    2.8229 H   0  0  0  0  0  0  0  0  0  0  0  0
  1  2  1  0  0  0  0
  1 18  1  0  0  0  0
  1 19  1  0  0  0  0
  1 20  1  0  0  0  0
  2  3  1  0  0  0  0
  2 21  1  0  0  0  0
  2 22  1  0  0  0  0
  3  4  1  0  0  0  0
  3 23  1  0  0  0  0
  3 24  1  0  0  0  0
  4  5  1  0  0  0  0
  4 25  1  0  0  0  0
  5  6  2  0  0  0  0
  5  7  1  0  0  0  0
  7  8  1  0  0  0  0
  7 26  1  0  0  0  0
  8  9  2  0  0  0  0
  8 10  2  0  0  0  0
  8 11  1  0  0  0  0
 11 12  2  0  0  0  0
 11 17  1  0  0  0  0
 12 13  1  0  0  0  0
 12 27  1  0  0  0  0
 13 14  2  0  0  0  0
 13 28  1  0  0  0  0
 14 15  1  0  0  0  0
 14 16  1  0  0  0  0
 16 17  2  0  0  0  0
 16 29  1  0  0  0  0
 17 30  1  0  0  0  0
M  END
$$$$

 OpenBabel12201709253D

 28 29  0  0  0  0  0  0  0  0999 V2000
    3.2235   -0.9874    0.3568 O   0  0  0  0  0  0  0  0  0  0  0  0
    2.5224   -0.0414    0.0222 C   0  0  0  0  0  0  0  0  0  0  0  0
    2.9485    1.2386   -0.1713 O   0  0  0  0  0  0  0  0  0  0  0  0
    4.3865    1.2595    0.1530 O   0  0  0  0  0  0  0  0  0  0  0  0
    4.9927    2.0928   -0.7357 C   0  0  0  0  0  0  0  0  0  0  0  0
    4.4470    2.7336   -1.6221 O   0  0  0  0  0  0  0  0  0  0  0  0
    6.4677    2.1209   -0.5091 C   0  0  0  0  0  0  0  0  0  0  0  0
    7.0444    1.8064    0.7313 C   0  0  0  0  0  0  0  0  0  0  0  0
    8.4325    1.8676    0.8985 C   0  0  0  0  0  0  0  0  0  0  0  0
    9.2528    2.2397   -0.1672 C   0  0  0  0  0  0  0  0  0  0  0  0
    8.6899    2.5589   -1.4019 C   0  0  0  0  0  0  0  0  0  0  0  0
    7.3018    2.5071   -1.5697 C   0  0  0  0  0  0  0  0  0  0  0  0
    1.0451   -0.1712   -0.1744 C   0  0  0  0  0  0  0  0  0  0  0  0
    0.4482   -1.4104    0.1159 C   0  0  0  0  0  0  0  0  0  0  0  0
   -0.9293   -1.5958   -0.0384 C   0  0  0  0  0  0  0  0  0  0  0  0
   -1.7247   -0.5470   -0.4852 C   0  0  0  0  0  0  0  0  0  0  0  0
   -1.1468    0.6908   -0.7750 C   0  0  0  0  0  0  0  0  0  0  0  0
    0.2336    0.8809   -0.6213 C   0  0  0  0  0  0  0  0  0  0  0  0
    6.4267    1.5229    1.5806 H   0  0  0  0  0  0  0  0  0  0  0  0
    8.8770    1.6302    1.8616 H   0  0  0  0  0  0  0  0  0  0  0  0
   10.3345    2.2853   -0.0342 H   0  0  0  0  0  0  0  0  0  0  0  0
    9.3286    2.8508   -2.2314 H   0  0  0  0  0  0  0  0  0  0  0  0
    6.8738    2.7666   -2.5359 H   0  0  0  0  0  0  0  0  0  0  0  0
    1.0553   -2.2424    0.4693 H   0  0  0  0  0  0  0  0  0  0  0  0
   -1.3778   -2.5600    0.1901 H   0  0  0  0  0  0  0  0  0  0  0  0
   -2.7978   -0.6884   -0.6063 H   0  0  0  0  0  0  0  0  0  0  0  0
   -1.7737    1.5098   -1.1215 H   0  0  0  0  0  0  0  0  0  0  0  0
    0.6538    1.8553   -0.8570 H   0  0  0  0  0  0  0  0  0  0  0  0
  1  2  2  0  0  0  0
  2  3  1  0  0  0  0
  2 13  1  0  0  0  0
  3  4  1  0  0  0  0
  4  5  1  0  0  0  0
  5  6  2  0  0  0  0
  5  7  1  0  0  0  0
  7  8  2  0  0  0  0
  7 12  1  0  0  0  0
  8  9  1  0  0  0  0
  8 19  1  0  0  0  0
  9 10  2  0  0  0  0
  9 20  1  0  0  0  0
 10 11  1  0  0  0  0
 10 21  1  0  0  0  0
 11 12  2  0  0  0  0
 11 22  1  0  0  0  0
 12 23  1  0  0  0  0
 13 14  2  0  0  0  0
 13 18  1  0  0  0  0
 14 15  1  0  0  0  0
 14 24  1  0  0  0  0
 15 16  2  0  0  0  0
 15 25  1  0  0  0  0
 16 17  1  0  0  0  0
 16 26  1  0  0  0  0
 17 18  2  0  0  0  0
 17 27  1  0  0  0  0
 18 28  1  0  0  0  0
M  END
$$$$

 OpenBabel12201709253D

 18 19  0  0  0  0  0  0  0  0999 V2000
    2.9341    1.2294    0.1331 O   0  0  0  0  0  0  0  0  0  0  0  0
    2.2767    0.0247    0.0529 N   0  0  0  0  0  0  0  0  0  0  0  0
    1.0697    0.0420   -0.0782 O   0  0  0  0  0  0  0  0  0  0  0  0
    2.9944   -1.2296    0.1240 C   0  0  0  0  0  0  0  0  0  0  0  0
    4.3885   -1.2162    0.2724 C   0  0  0  0  0  0  0  0  0  0  0  0
    5.1085   -2.4172    0.3461 C   0  0  0  0  0  0  0  0  0  0  0  0
    4.4097   -3.6310    0.2691 C   0  0  0  0  0  0  0  0  0  0  0  0
    4.8797   -4.9201    0.3175 N   0  0  0  0  0  0  0  0  0  0  0  0
    3.8150   -5.6803    0.2028 C   0  0  0  0  0  0  0  0  0  0  0  0
    2.6744   -4.9378    0.0809 N   0  0  0  0  0  0  0  0  0  0  0  0
    1.7378   -5.3013   -0.0201 H   0  0  0  0  0  0  0  0  0  0  0  0
    3.0265   -3.6124    0.1211 C   0  0  0  0  0  0  0  0  0  0  0  0
    2.2770   -2.4359    0.0435 C   0  0  0  0  0  0  0  0  0  0  0  0
    2.1546    1.8038    0.0529 H   0  0  0  0  0  0  0  0  0  0  0  0
    4.9334   -0.2763    0.3332 H   0  0  0  0  0  0  0  0  0  0  0  0
    6.1871   -2.4197    0.4613 H   0  0  0  0  0  0  0  0  0  0  0  0
    3.8064   -6.7622    0.2013 H   0  0  0  0  0  0  0  0  0  0  0  0
    1.1976   -2.4527   -0.0718 H   0  0  0  0  0  0  0  0  0  0  0  0
  1  2  1  0  0  0  0
  1 14  1  0  0  0  0
  2  3  2  0  0  0  0
  2  4  1  0  0  0  0
  4  5  2  0  0  0  0
  4 13  1  0  0  0  0
  5  6  1  0  0  0  0
  5 15  1  0  0  0  0
  6  7  2  0  0  0  0
  6 16  1  0  0  0  0
  7  8  1  0  0  0  0
  7 12  1  0  0  0  0
  8  9  2  0  0  0  0
  9 10  1  0  0  0  0
  9 17  1  0  0  0  0
 10 11  1  0  0  0  0
 10 12  1  0  0  0  0
 12 13  2  0  0  0  0
 13 18  1  0  0  0  0
M  END
$$$$

 OpenBabel12201709253D

 24 25  0  0  0  0  0  0  0  0999 V2000
    1.0146   -1.2260    2.4775 C   0  0  0  0  0  0  0  0  0  0  0  0
    2.5341   -1.1772    2.5135 C   0  0  0  0  0  0  0  0  0  0  0  0
    3.0999   -0.4405    1.2963 C   0  0  0  0  0  0  0  0  0  0  0  0
    4.6090   -0.3578    1.3099 C   0  0  0  0  0  0  0  0  0  0  0  0
    5.3917   -1.5362    1.2788 C   0  0  0  0  0  0  0  0  0  0  0  0
    6.7886   -1.4769    1.2802 C   0  0  0  0  0  0  0  0  0  0  0  0
    7.3760   -0.2324    1.2979 C   0  0  0  0  0  0  0  0  0  0  0  0
    8.7130    0.0155    1.2926 O   0  0  0  0  0  0  0  0  0  0  0  0
    8.7199    1.4576    1.2904 C   0  0  0  0  0  0  0  0  0  0  0  0
    7.4000    2.0398    1.3243 O   0  0  0  0  0  0  0  0  0  0  0  0
    6.6277    0.9202    1.3174 C   0  0  0  0  0  0  0  0  0  0  0  0
    5.2479    0.8929    1.3254 C   0  0  0  0  0  0  0  0  0  0  0  0
    0.6330   -1.7662    3.3496 H   0  0  0  0  0  0  0  0  0  0  0  0
    0.6604   -1.7404    1.5783 H   0  0  0  0  0  0  0  0  0  0  0  0
    0.5885   -0.2179    2.4887 H   0  0  0  0  0  0  0  0  0  0  0  0
    2.9156   -2.2040    2.5540 H   0  0  0  0  0  0  0  0  0  0  0  0
    2.8593   -0.6812    3.4361 H   0  0  0  0  0  0  0  0  0  0  0  0
    2.6742    0.5699    1.2586 H   0  0  0  0  0  0  0  0  0  0  0  0
    2.7889   -0.9403    0.3702 H   0  0  0  0  0  0  0  0  0  0  0  0
    4.9079   -2.5105    1.2510 H   0  0  0  0  0  0  0  0  0  0  0  0
    7.3890   -2.3791    1.2627 H   0  0  0  0  0  0  0  0  0  0  0  0
    9.2318    1.8031    0.3845 H   0  0  0  0  0  0  0  0  0  0  0  0
    9.2803    1.8073    2.1649 H   0  0  0  0  0  0  0  0  0  0  0  0
    4.6855    1.8205    1.3390 H   0  0  0  0  0  0  0  0  0  0  0  0
  1  2  1  0  0  0  0
  1 13  1  0  0  0  0
  1 14  1  0  0  0  0
  1 15  1  0  0  0  0
  2  3  1  0  0  0  0
  2 16  1  0  0  0  0
  2 17  1  0  0  0  0
  3  4  1  0  0  0  0
  3 18  1  0  0  0  0
  3 19  1  0  0  0  0
  4  5  2  0  0  0  0
  4 12  1  0  0  0  0
  5  6  1  0  0  0  0
  5 20  1  0  0  0  0
  6  7  2  0  0  0  0
  6 21  1  0  0  0  0
  7  8  1  0  0  0  0
  7 11  1  0  0  0  0
  8  9  1  0  0  0  0
  9 10  1  0  0  0  0
  9 22  1  0  0  0  0
  9 23  1  0  0  0  0
 10 11  1  0  0  0  0
 11 12  2  0  0  0  0
 12 24  1  0  0  0  0
M  END
$$$$

 OpenBabel12201709253D

 22 23  0  0  0  0  0  0  0  0999 V2000
    1.4484    0.0509   -0.6656 C   0  0  0  0  0  0  0  0  0  0  0  0
    2.4526   -0.7727   -0.3368 C   0  0  0  0  0  0  0  0  0  0  0  0
    3.2002   -0.7227    0.9656 C   0  0  0  0  0  0  0  0  0  0  0  0
    4.6798   -0.4862    0.7690 C   0  0  0  0  0  0  0  0  0  0  0  0
    5.5637   -1.5807    0.6187 C   0  0  0  0  0  0  0  0  0  0  0  0
    6.9327   -1.3789    0.4167 C   0  0  0  0  0  0  0  0  0  0  0  0
    7.3875   -0.0801    0.3625 C   0  0  0  0  0  0  0  0  0  0  0  0
    8.6781    0.3026    0.1696 O   0  0  0  0  0  0  0  0  0  0  0  0
    8.5385    1.7384    0.1815 C   0  0  0  0  0  0  0  0  0  0  0  0
    7.1858    2.1833    0.4122 O   0  0  0  0  0  0  0  0  0  0  0  0
    6.5371    0.9911    0.5005 C   0  0  0  0  0  0  0  0  0  0  0  0
    5.1830    0.8238    0.7013 C   0  0  0  0  0  0  0  0  0  0  0  0
    0.9473   -0.0415   -1.6244 H   0  0  0  0  0  0  0  0  0  0  0  0
    1.1066    0.8326    0.0054 H   0  0  0  0  0  0  0  0  0  0  0  0
    2.7551   -1.5407   -1.0461 H   0  0  0  0  0  0  0  0  0  0  0  0
    3.0498   -1.6701    1.4977 H   0  0  0  0  0  0  0  0  0  0  0  0
    2.7951    0.0554    1.6253 H   0  0  0  0  0  0  0  0  0  0  0  0
    5.1797   -2.5986    0.6575 H   0  0  0  0  0  0  0  0  0  0  0  0
    7.6135   -2.2143    0.3027 H   0  0  0  0  0  0  0  0  0  0  0  0
    8.8753    2.1306   -0.7852 H   0  0  0  0  0  0  0  0  0  0  0  0
    9.1817    2.1469    0.9693 H   0  0  0  0  0  0  0  0  0  0  0  0
    4.5319    1.6860    0.7985 H   0  0  0  0  0  0  0  0  0  0  0  0
  1  2  2  0  0  0  0
  1 13  1  0  0  0  0
  1 14  1  0  0  0  0
  2  3  1  0  0  0  0
  2 15  1  0  0  0  0
  3  4  1  0  0  0  0
  3 16  1  0  0  0  0
  3 17  1  0  0  0  0
  4  5  2  0  0  0  0
  4 12  1  0  0  0  0
  5  6  1  0  0  0  0
  5 18  1  0  0  0  0
  6  7  2  0  0  0  0
  6 19  1  0  0  0  0
  7  8  1  0  0  0  0
  7 11  1  0  0  0  0
  8  9  1  0  0  0  0
  9 10  1  0  0  0  0
  9 20  1  0  0  0  0
  9 21  1  0  0  0  0
 10 11  1  0  0  0  0
 11 12  2  0  0  0  0
 12 22  1  0  0  0  0
M  END
$$$$

 OpenBabel12201709253D

 19 19  0  0  0  0  0  0  0  0999 V2000
    2.9879    1.0263   -0.2239 O   0  0  0  0  0  0  0  0  0  0  0  0
    2.3973   -0.1892   -0.1238 C   0  0  0  0  0  0  0  0  0  0  0  0
    1.2173   -0.3205    0.1680 O   0  0  0  0  0  0  0  0  0  0  0  0
    3.3363   -1.3506   -0.3976 C   0  0  0  0  0  0  0  0  0  0  0  0
    4.6448   -0.8794   -0.7360 O   0  0  0  0  0  0  0  0  0  0  0  0
    5.4033   -1.6986   -1.5366 C   0  0  0  0  0  0  0  0  0  0  0  0
    6.2592   -0.9900   -2.3951 C   0  0  0  0  0  0  0  0  0  0  0  0
    7.0858   -1.6600   -3.3019 C   0  0  0  0  0  0  0  0  0  0  0  0
    7.0670   -3.0489   -3.3531 C   0  0  0  0  0  0  0  0  0  0  0  0
    8.0606   -3.8809   -4.4830 Cl  0  0  0  0  0  0  0  0  0  0  0  0
    6.2572   -3.7712   -2.4830 C   0  0  0  0  0  0  0  0  0  0  0  0
    5.4421   -3.1037   -1.5592 C   0  0  0  0  0  0  0  0  0  0  0  0
    4.5932   -4.1209   -0.4495 Cl  0  0  0  0  0  0  0  0  0  0  0  0
    3.9352    0.9133   -0.4483 H   0  0  0  0  0  0  0  0  0  0  0  0
    2.8940   -1.9223   -1.2207 H   0  0  0  0  0  0  0  0  0  0  0  0
    3.3959   -1.9195    0.5331 H   0  0  0  0  0  0  0  0  0  0  0  0
    6.2827    0.0978   -2.3684 H   0  0  0  0  0  0  0  0  0  0  0  0
    7.7365   -1.0937   -3.9642 H   0  0  0  0  0  0  0  0  0  0  0  0
    6.2702   -4.8585   -2.5123 H   0  0  0  0  0  0  0  0  0  0  0  0
  1  2  1  0  0  0  0
  1 14  1  0  0  0  0
  2  3  2  0  0  0  0
  2  4  1  0  0  0  0
  4  5  1  0  0  0  0
  4 15  1  0  0  0  0
  4 16  1  0  0  0  0
  5  6  1  0  0  0  0
  6  7  2  0  0  0  0
  6 12  1  0  0  0  0
  7  8  1  0  0  0  0
  7 17  1  0  0  0  0
  8  9  2  0  0  0  0
  8 18  1  0  0  0  0
  9 10  1  0  0  0  0
  9 11  1  0  0  0  0
 11 12  2  0  0  0  0
 11 19  1  0  0  0  0
 12 13  1  0  0  0  0
M  END
$$$$

 OpenBabel12201709253D

 31 31  0  0  0  0  0  0  0  0999 V2000
    2.5175   -0.1936   -1.7100 C   0  0  0  0  0  0  0  0  0  0  0  0
    3.3134    1.0574   -1.4058 C   0  0  0  0  0  0  0  0  0  0  0  0
    3.8708    1.0788    0.0193 C   0  0  0  0  0  0  0  0  0  0  0  0
    4.6422    2.3742    0.2331 C   0  0  0  0  0  0  0  0  0  0  0  0
    5.1112    2.5269    1.5737 O   0  0  0  0  0  0  0  0  0  0  0  0
    6.4706    2.4183    1.6996 C   0  0  0  0  0  0  0  0  0  0  0  0
    7.1686    1.6458    1.0598 O   0  0  0  0  0  0  0  0  0  0  0  0
    6.9518    3.5225    2.6313 C   0  0  0  0  0  0  0  0  0  0  0  0
    8.3682    3.5656    2.7317 O   0  0  0  0  0  0  0  0  0  0  0  0
    8.9292    4.6653    3.3271 C   0  0  0  0  0  0  0  0  0  0  0  0
    8.2013    5.6959    3.9373 C   0  0  0  0  0  0  0  0  0  0  0  0
    8.8639    6.7808    4.5188 C   0  0  0  0  0  0  0  0  0  0  0  0
   10.2542    6.8388    4.5025 C   0  0  0  0  0  0  0  0  0  0  0  0
   11.0571    8.1774    5.2295 Cl  0  0  0  0  0  0  0  0  0  0  0  0
   10.9959    5.8298    3.9016 C   0  0  0  0  0  0  0  0  0  0  0  0
   10.3328    4.7474    3.3172 C   0  0  0  0  0  0  0  0  0  0  0  0
   11.2997    3.5182    2.5776 Cl  0  0  0  0  0  0  0  0  0  0  0  0
    2.1448   -0.1556   -2.7388 H   0  0  0  0  0  0  0  0  0  0  0  0
    1.6582   -0.2857   -1.0368 H   0  0  0  0  0  0  0  0  0  0  0  0
    3.1389   -1.0869   -1.6065 H   0  0  0  0  0  0  0  0  0  0  0  0
    2.6727    1.9361   -1.5605 H   0  0  0  0  0  0  0  0  0  0  0  0
    4.1393    1.1396   -2.1236 H   0  0  0  0  0  0  0  0  0  0  0  0
    4.5280    0.2183    0.1932 H   0  0  0  0  0  0  0  0  0  0  0  0
    3.0591    1.0013    0.7533 H   0  0  0  0  0  0  0  0  0  0  0  0
    3.9765    3.2268    0.0566 H   0  0  0  0  0  0  0  0  0  0  0  0
    5.4595    2.4633   -0.4928 H   0  0  0  0  0  0  0  0  0  0  0  0
    6.5140    3.3563    3.6212 H   0  0  0  0  0  0  0  0  0  0  0  0
    6.5862    4.4563    2.1852 H   0  0  0  0  0  0  0  0  0  0  0  0
    7.1170    5.6891    3.9797 H   0  0  0  0  0  0  0  0  0  0  0  0
    8.2849    7.5745    4.9877 H   0  0  0  0  0  0  0  0  0  0  0  0
   12.0802    5.8789    3.8918 H   0  0  0  0  0  0  0  0  0  0  0  0
  1  2  1  0  0  0  0
  1 18  1  0  0  0  0
  1 19  1  0  0  0  0
  1 20  1  0  0  0  0
  2  3  1  0  0  0  0
  2 21  1  0  0  0  0
  2 22  1  0  0  0  0
  3  4  1  0  0  0  0
  3 23  1  0  0  0  0
  3 24  1  0  0  0  0
  4  5  1  0  0  0  0
  4 25  1  0  0  0  0
  4 26  1  0  0  0  0
  5  6  1  0  0  0  0
  6  7  2  0  0  0  0
  6  8  1  0  0  0  0
  8  9  1  0  0  0  0
  8 27  1  0  0  0  0
  8 28  1  0  0  0  0
  9 10  1  0  0  0  0
 10 11  2  0  0  0  0
 10 16  1  0  0  0  0
 11 12  1  0  0  0  0
 11 29  1  0  0  0  0
 12 13  2  0  0  0  0
 12 30  1  0  0  0  0
 13 14  1  0  0  0  0
 13 15  1  0  0  0  0
 15 16  2  0  0  0  0
 15 31  1  0  0  0  0
 16 17  1  0  0  0  0
M  END
$$$$

 OpenBabel12201709253D

 26 25  0  0  0  0  0  0  0  0999 V2000
    2.2994    1.3731   -0.3400 C   0  0  0  0  0  0  0  0  0  0  0  0
    2.5218   -0.0457    0.1685 C   0  0  0  0  0  0  0  0  0  0  0  0
    3.0742   -0.9553   -0.8577 N   0  0  0  0  0  0  0  0  0  0  0  0
    2.1261   -1.7388   -1.6855 C   0  0  0  0  0  0  0  0  0  0  0  0
    0.6298   -1.5302   -1.4935 C   0  0  0  0  0  0  0  0  0  0  0  0
    4.4797   -1.0568   -1.0608 C   0  0  0  0  0  0  0  0  0  0  0  0
    5.6360   -0.1471   -0.2296 S   0  0  0  0  0  0  0  0  0  0  0  0
    4.9802   -2.1769   -2.3505 S   0  0  0  0  0  0  0  0  0  0  0  0
    6.4939   -2.9283   -1.6868 C   0  0  0  0  0  0  0  0  0  0  0  0
    6.9373   -4.0544   -2.5839 C   0  0  0  0  0  0  0  0  0  0  0  0
    7.7872   -3.9202   -3.6112 C   0  0  0  0  0  0  0  0  0  0  0  0
    6.3488   -5.6305   -2.1717 Cl  0  0  0  0  0  0  0  0  0  0  0  0
    1.9260    2.0071    0.4690 H   0  0  0  0  0  0  0  0  0  0  0  0
    1.5664    1.3984   -1.1524 H   0  0  0  0  0  0  0  0  0  0  0  0
    3.2227    1.8204   -0.7194 H   0  0  0  0  0  0  0  0  0  0  0  0
    1.5915   -0.4547    0.5682 H   0  0  0  0  0  0  0  0  0  0  0  0
    3.2013   -0.0124    1.0266 H   0  0  0  0  0  0  0  0  0  0  0  0
    2.3418   -2.7974   -1.4958 H   0  0  0  0  0  0  0  0  0  0  0  0
    2.3509   -1.5321   -2.7380 H   0  0  0  0  0  0  0  0  0  0  0  0
    0.3076   -1.7948   -0.4821 H   0  0  0  0  0  0  0  0  0  0  0  0
    0.0777   -2.1747   -2.1859 H   0  0  0  0  0  0  0  0  0  0  0  0
    0.3363   -0.4975   -1.7006 H   0  0  0  0  0  0  0  0  0  0  0  0
    6.3260   -3.2931   -0.6664 H   0  0  0  0  0  0  0  0  0  0  0  0
    7.2887   -2.1760   -1.6430 H   0  0  0  0  0  0  0  0  0  0  0  0
    8.1838   -2.9492   -3.8885 H   0  0  0  0  0  0  0  0  0  0  0  0
    8.0908   -4.7711   -4.2154 H   0  0  0  0  0  0  0  0  0  0  0  0
  1  2  1  0  0  0  0
  1 13  1  0  0  0  0
  1 14  1  0  0  0  0
  1 15  1  0  0  0  0
  2  3  1  0  0  0  0
  2 16  1  0  0  0  0
  2 17  1  0  0  0  0
  3  4  1  0  0  0  0
  3  6  1  0  0  0  0
  4  5  1  0  0  0  0
  4 18  1  0  0  0  0
  4 19  1  0  0  0  0
  5 20  1  0  0  0  0
  5 21  1  0  0  0  0
  5 22  1  0  0  0  0
  6  7  2  0  0  0  0
  6  8  1  0  0  0  0
  8  9  1  0  0  0  0
  9 10  1  0  0  0  0
  9 23  1  0  0  0  0
  9 24  1  0  0  0  0
 10 11  2  0  0  0  0
 10 12  1  0  0  0  0
 11 25  1  0  0  0  0
 11 26  1  0  0  0  0
M  END
$$$$

 OpenBabel12201709253D

 14 15  0  0  0  0  0  0  0  0999 V2000
    2.1234   -0.6846   -0.0004 C   0  0  0  0  0  0  0  0  0  0  0  0
    2.1333    0.7140   -0.0001 C   0  0  0  0  0  0  0  0  0  0  0  0
    0.9435    1.4528    0.0001 C   0  0  0  0  0  0  0  0  0  0  0  0
   -0.2420    0.7162   -0.0001 C   0  0  0  0  0  0  0  0  0  0  0  0
   -1.5635    1.0625   -0.0000 N   0  0  0  0  0  0  0  0  0  0  0  0
   -1.9835    1.9832    0.0001 H   0  0  0  0  0  0  0  0  0  0  0  0
   -2.3663   -0.0144   -0.0003 N   0  0  0  0  0  0  0  0  0  0  0  0
   -1.5878   -1.0900   -0.0005 N   0  0  0  0  0  0  0  0  0  0  0  0
   -0.2837   -0.6715   -0.0004 C   0  0  0  0  0  0  0  0  0  0  0  0
    0.9159   -1.3961   -0.0006 C   0  0  0  0  0  0  0  0  0  0  0  0
    3.0647   -1.2301   -0.0006 H   0  0  0  0  0  0  0  0  0  0  0  0
    3.0868    1.2395    0.0000 H   0  0  0  0  0  0  0  0  0  0  0  0
    0.9520    2.5372    0.0003 H   0  0  0  0  0  0  0  0  0  0  0  0
    0.9019   -2.4803   -0.0008 H   0  0  0  0  0  0  0  0  0  0  0  0
  1  2  2  0  0  0  0
  1 10  1  0  0  0  0
  1 11  1  0  0  0  0
  2  3  1  0  0  0  0
  2 12  1  0  0  0  0
  3  4  2  0  0  0  0
  3 13  1  0  0  0  0
  4  5  1  0  0  0  0
  4  9  1  0  0  0  0
  5  6  1  0  0  0  0
  5  7  1  0  0  0  0
  7  8  2  0  0  0  0
  8  9  1  0  0  0  0
  9 10  2  0  0  0  0
 10 14  1  0  0  0  0
M  END
$$$$

 OpenBabel12201709253D

 12 12  0  0  0  0  0  0  0  0999 V2000
    1.0268   -0.0177    0.1264 Cl  0  0  0  0  0  0  0  0  0  0  0  0
    2.7469   -0.0688   -0.0293 C   0  0  0  0  0  0  0  0  0  0  0  0
    3.4324    1.1494   -0.0798 C   0  0  0  0  0  0  0  0  0  0  0  0
    4.8228    1.1687   -0.2051 C   0  0  0  0  0  0  0  0  0  0  0  0
    5.5322   -0.0288   -0.2803 C   0  0  0  0  0  0  0  0  0  0  0  0
    4.8521   -1.2471   -0.2303 C   0  0  0  0  0  0  0  0  0  0  0  0
    3.4592   -1.2712   -0.1048 C   0  0  0  0  0  0  0  0  0  0  0  0
    2.6834   -2.8141   -0.0492 Cl  0  0  0  0  0  0  0  0  0  0  0  0
    2.8875    2.0888   -0.0219 H   0  0  0  0  0  0  0  0  0  0  0  0
    5.3518    2.1184   -0.2440 H   0  0  0  0  0  0  0  0  0  0  0  0
    6.6155   -0.0148   -0.3779 H   0  0  0  0  0  0  0  0  0  0  0  0
    5.4141   -2.1763   -0.2897 H   0  0  0  0  0  0  0  0  0  0  0  0
  1  2  1  0  0  0  0
  2  3  2  0  0  0  0
  2  7  1  0  0  0  0
  3  4  1  0  0  0  0
  3  9  1  0  0  0  0
  4  5  2  0  0  0  0
  4 10  1  0  0  0  0
  5  6  1  0  0  0  0
  5 11  1  0  0  0  0
  6  7  2  0  0  0  0
  6 12  1  0  0  0  0
  7  8  1  0  0  0  0
M  END
$$$$

 OpenBabel12201709253D

 17 17  0  0  0  0  0  0  0  0999 V2000
    1.0688    0.0994    0.0428 C   0  0  0  0  0  0  0  0  0  0  0  0
    2.5666    0.0897   -0.0686 C   0  0  0  0  0  0  0  0  0  0  0  0
    3.2665    1.3031   -0.1098 C   0  0  0  0  0  0  0  0  0  0  0  0
    4.6601    1.3198   -0.2278 C   0  0  0  0  0  0  0  0  0  0  0  0
    5.3823    0.1322   -0.3523 C   0  0  0  0  0  0  0  0  0  0  0  0
    6.7819    0.1557   -0.3533 N   0  0  0  0  0  0  0  0  0  0  0  0
    4.6965   -1.0784   -0.2434 C   0  0  0  0  0  0  0  0  0  0  0  0
    3.3017   -1.1027   -0.1260 C   0  0  0  0  0  0  0  0  0  0  0  0
    2.5253   -2.6453   -0.0448 Cl  0  0  0  0  0  0  0  0  0  0  0  0
    0.6787    1.1207    0.1114 H   0  0  0  0  0  0  0  0  0  0  0  0
    0.7462   -0.4336    0.9428 H   0  0  0  0  0  0  0  0  0  0  0  0
    0.6198   -0.3656   -0.8407 H   0  0  0  0  0  0  0  0  0  0  0  0
    2.7342    2.2494   -0.0379 H   0  0  0  0  0  0  0  0  0  0  0  0
    5.1771    2.2761   -0.2248 H   0  0  0  0  0  0  0  0  0  0  0  0
    7.1781    1.0069   -0.7404 H   0  0  0  0  0  0  0  0  0  0  0  0
    7.2074   -0.6781   -0.7471 H   0  0  0  0  0  0  0  0  0  0  0  0
    5.2486   -2.0143   -0.2539 H   0  0  0  0  0  0  0  0  0  0  0  0
  1  2  1  0  0  0  0
  1 10  1  0  0  0  0
  1 11  1  0  0  0  0
  1 12  1  0  0  0  0
  2  3  2  0  0  0  0
  2  8  1  0  0  0  0
  3  4  1  0  0  0  0
  3 13  1  0  0  0  0
  4  5  2  0  0  0  0
  4 14  1  0  0  0  0
  5  6  1  0  0  0  0
  5  7  1  0  0  0  0
  6 15  1  0  0  0  0
  6 16  1  0  0  0  0
  7  8  2  0  0  0  0
  7 17  1  0  0  0  0
  8  9  1  0  0  0  0
M  END
$$$$

 OpenBabel12201709253D

 17 17  0  0  0  0  0  0  0  0999 V2000
    0.9415    0.1112    0.0522 C   0  0  0  0  0  0  0  0  0  0  0  0
    2.4391    0.0831   -0.0893 C   0  0  0  0  0  0  0  0  0  0  0  0
    3.1392    1.3009   -0.1519 C   0  0  0  0  0  0  0  0  0  0  0  0
    4.5290    1.3183   -0.2575 C   0  0  0  0  0  0  0  0  0  0  0  0
    5.2279    0.1178   -0.2841 C   0  0  0  0  0  0  0  0  0  0  0  0
    6.9466    0.1320   -0.3834 Cl  0  0  0  0  0  0  0  0  0  0  0  0
    4.5474   -1.0974   -0.2226 C   0  0  0  0  0  0  0  0  0  0  0  0
    3.1475   -1.1314   -0.1771 C   0  0  0  0  0  0  0  0  0  0  0  0
    2.5069   -2.3670    0.0083 N   0  0  0  0  0  0  0  0  0  0  0  0
    0.5653    1.1343    0.1568 H   0  0  0  0  0  0  0  0  0  0  0  0
    0.6308   -0.4440    0.9434 H   0  0  0  0  0  0  0  0  0  0  0  0
    0.4706   -0.3265   -0.8339 H   0  0  0  0  0  0  0  0  0  0  0  0
    2.6026    2.2463   -0.1055 H   0  0  0  0  0  0  0  0  0  0  0  0
    5.0569    2.2670   -0.2995 H   0  0  0  0  0  0  0  0  0  0  0  0
    5.1128   -2.0253   -0.2128 H   0  0  0  0  0  0  0  0  0  0  0  0
    3.0244   -3.1581   -0.3630 H   0  0  0  0  0  0  0  0  0  0  0  0
    1.5358   -2.3801   -0.2842 H   0  0  0  0  0  0  0  0  0  0  0  0
  1  2  1  0  0  0  0
  1 10  1  0  0  0  0
  1 11  1  0  0  0  0
  1 12  1  0  0  0  0
  2  3  2  0  0  0  0
  2  8  1  0  0  0  0
  3  4  1  0  0  0  0
  3 13  1  0  0  0  0
  4  5  2  0  0  0  0
  4 14  1  0  0  0  0
  5  6  1  0  0  0  0
  5  7  1  0  0  0  0
  7  8  2  0  0  0  0
  7 15  1  0  0  0  0
  8  9  1  0  0  0  0
  9 16  1  0  0  0  0
  9 17  1  0  0  0  0
M  END
$$$$

 OpenBabel12201709253D

 19 19  0  0  0  0  0  0  0  0999 V2000
    1.0591   -0.0066    0.1524 C   0  0  0  0  0  0  0  0  0  0  0  0
    2.5547   -0.0363    0.0023 C   0  0  0  0  0  0  0  0  0  0  0  0
    3.2599    1.1762   -0.0470 C   0  0  0  0  0  0  0  0  0  0  0  0
    4.6509    1.1897   -0.1649 C   0  0  0  0  0  0  0  0  0  0  0  0
    5.3650   -0.0023   -0.2620 C   0  0  0  0  0  0  0  0  0  0  0  0
    6.7661    0.0114   -0.2384 N   0  0  0  0  0  0  0  0  0  0  0  0
    4.6663   -1.2077   -0.1414 C   0  0  0  0  0  0  0  0  0  0  0  0
    3.2637   -1.2465   -0.0859 C   0  0  0  0  0  0  0  0  0  0  0  0
    2.6274   -2.4839    0.1157 N   0  0  0  0  0  0  0  0  0  0  0  0
    0.6831    1.0181    0.2461 H   0  0  0  0  0  0  0  0  0  0  0  0
    0.7528   -0.5517    1.0513 H   0  0  0  0  0  0  0  0  0  0  0  0
    0.5835   -0.4537   -0.7263 H   0  0  0  0  0  0  0  0  0  0  0  0
    2.7309    2.1232    0.0309 H   0  0  0  0  0  0  0  0  0  0  0  0
    5.1720    2.1432   -0.1642 H   0  0  0  0  0  0  0  0  0  0  0  0
    7.1699    0.8537   -0.6365 H   0  0  0  0  0  0  0  0  0  0  0  0
    7.1856   -0.8314   -0.6171 H   0  0  0  0  0  0  0  0  0  0  0  0
    5.2243   -2.1388   -0.0976 H   0  0  0  0  0  0  0  0  0  0  0  0
    3.1485   -3.2721   -0.2545 H   0  0  0  0  0  0  0  0  0  0  0  0
    1.6563   -2.4987   -0.1751 H   0  0  0  0  0  0  0  0  0  0  0  0
  1  2  1  0  0  0  0
  1 10  1  0  0  0  0
  1 11  1  0  0  0  0
  1 12  1  0  0  0  0
  2  3  2  0  0  0  0
  2  8  1  0  0  0  0
  3  4  1  0  0  0  0
  3 13  1  0  0  0  0
  4  5  2  0  0  0  0
  4 14  1  0  0  0  0
  5  6  1  0  0  0  0
  5  7  1  0  0  0  0
  6 15  1  0  0  0  0
  6 16  1  0  0  0  0
  7  8  2  0  0  0  0
  7 17  1  0  0  0  0
  8  9  1  0  0  0  0
  9 18  1  0  0  0  0
  9 19  1  0  0  0  0
M  END
$$$$

 OpenBabel12201709253D

 16 16  0  0  0  0  0  0  0  0999 V2000
    1.1010   -0.0168    0.1982 N   0  0  0  0  0  0  0  0  0  0  0  0
    2.4735   -0.0441   -0.1108 C   0  0  0  0  0  0  0  0  0  0  0  0
    3.1796    1.1679   -0.1217 C   0  0  0  0  0  0  0  0  0  0  0  0
    4.5664    1.1891   -0.2764 C   0  0  0  0  0  0  0  0  0  0  0  0
    5.2641   -0.0100   -0.3602 C   0  0  0  0  0  0  0  0  0  0  0  0
    6.9780    0.0089   -0.5175 Cl  0  0  0  0  0  0  0  0  0  0  0  0
    4.5880   -1.2269   -0.2903 C   0  0  0  0  0  0  0  0  0  0  0  0
    3.1898   -1.2615   -0.1940 C   0  0  0  0  0  0  0  0  0  0  0  0
    2.5619   -2.5014    0.0322 N   0  0  0  0  0  0  0  0  0  0  0  0
    0.6354    0.8430   -0.0710 H   0  0  0  0  0  0  0  0  0  0  0  0
    0.5937   -0.8403   -0.0935 H   0  0  0  0  0  0  0  0  0  0  0  0
    2.6502    2.1090    0.0034 H   0  0  0  0  0  0  0  0  0  0  0  0
    5.0932    2.1388   -0.2981 H   0  0  0  0  0  0  0  0  0  0  0  0
    5.1540   -2.1540   -0.2983 H   0  0  0  0  0  0  0  0  0  0  0  0
    3.0643   -3.2965   -0.3476 H   0  0  0  0  0  0  0  0  0  0  0  0
    1.5772   -2.5178   -0.1924 H   0  0  0  0  0  0  0  0  0  0  0  0
  1  2  1  0  0  0  0
  1 10  1  0  0  0  0
  1 11  1  0  0  0  0
  2  3  2  0  0  0  0
  2  8  1  0  0  0  0
  3  4  1  0  0  0  0
  3 12  1  0  0  0  0
  4  5  2  0  0  0  0
  4 13  1  0  0  0  0
  5  6  1  0  0  0  0
  5  7  1  0  0  0  0
  7  8  2  0  0  0  0
  7 14  1  0  0  0  0
  8  9  1  0  0  0  0
  9 15  1  0  0  0  0
  9 16  1  0  0  0  0
M  END
$$$$

 OpenBabel12201709253D

 27 29  0  0  0  0  0  0  0  0999 V2000
    0.9633   -0.0898    0.1018 N   0  0  0  0  0  0  0  0  0  0  0  0
    2.3508   -0.0332   -0.0796 C   0  0  0  0  0  0  0  0  0  0  0  0
    3.0061    1.1958   -0.0533 C   0  0  0  0  0  0  0  0  0  0  0  0
    4.3976    1.2516   -0.0952 C   0  0  0  0  0  0  0  0  0  0  0  0
    5.1505    0.0681   -0.1149 C   0  0  0  0  0  0  0  0  0  0  0  0
    6.5476    0.0921   -0.1380 C   0  0  0  0  0  0  0  0  0  0  0  0
    7.2698   -1.1039   -0.1229 C   0  0  0  0  0  0  0  0  0  0  0  0
    8.6727   -1.1129   -0.1116 C   0  0  0  0  0  0  0  0  0  0  0  0
    9.3654   -2.3216   -0.0769 C   0  0  0  0  0  0  0  0  0  0  0  0
    8.6725   -3.5295   -0.1007 C   0  0  0  0  0  0  0  0  0  0  0  0
    9.3627   -4.7352    0.0746 N   0  0  0  0  0  0  0  0  0  0  0  0
    7.2723   -3.5006   -0.0638 C   0  0  0  0  0  0  0  0  0  0  0  0
    6.5497   -2.3115   -0.0934 C   0  0  0  0  0  0  0  0  0  0  0  0
    5.2015   -2.3422   -0.0807 N   0  0  0  0  0  0  0  0  0  0  0  0
    4.5109   -1.1838   -0.0870 C   0  0  0  0  0  0  0  0  0  0  0  0
    3.1197   -1.2040   -0.0503 C   0  0  0  0  0  0  0  0  0  0  0  0
    0.4668    0.7317   -0.2288 H   0  0  0  0  0  0  0  0  0  0  0  0
    0.5395   -0.9544   -0.2221 H   0  0  0  0  0  0  0  0  0  0  0  0
    2.4390    2.1210    0.0026 H   0  0  0  0  0  0  0  0  0  0  0  0
    4.8887    2.2215   -0.0903 H   0  0  0  0  0  0  0  0  0  0  0  0
    7.0734    1.0435   -0.1517 H   0  0  0  0  0  0  0  0  0  0  0  0
    9.2333   -0.1814   -0.1073 H   0  0  0  0  0  0  0  0  0  0  0  0
   10.4509   -2.3101   -0.0269 H   0  0  0  0  0  0  0  0  0  0  0  0
   10.3209   -4.7182   -0.2610 H   0  0  0  0  0  0  0  0  0  0  0  0
    8.8549   -5.5531   -0.2484 H   0  0  0  0  0  0  0  0  0  0  0  0
    6.7158   -4.4326   -0.0065 H   0  0  0  0  0  0  0  0  0  0  0  0
    2.6263   -2.1710    0.0052 H   0  0  0  0  0  0  0  0  0  0  0  0
  1  2  1  0  0  0  0
  1 17  1  0  0  0  0
  1 18  1  0  0  0  0
  2  3  2  0  0  0  0
  2 16  1  0  0  0  0
  3  4  1  0  0  0  0
  3 19  1  0  0  0  0
  4  5  2  0  0  0  0
  4 20  1  0  0  0  0
  5  6  1  0  0  0  0
  5 15  1  0  0  0  0
  6  7  2  0  0  0  0
  6 21  1  0  0  0  0
  7  8  1  0  0  0  0
  7 13  1  0  0  0  0
  8  9  2  0  0  0  0
  8 22  1  0  0  0  0
  9 10  1  0  0  0  0
  9 23  1  0  0  0  0
 10 11  1  0  0  0  0
 10 12  2  0  0  0  0
 11 24  1  0  0  0  0
 11 25  1  0  0  0  0
 12 13  1  0  0  0  0
 12 26  1  0  0  0  0
 13 14  2  0  0  0  0
 14 15  1  0  0  0  0
 15 16  2  0  0  0  0
 16 27  1  0  0  0  0
M  END
$$$$

 OpenBabel12201709253D

 17 18  0  0  1  0  0  0  0  0999 V2000
    1.3873   -0.5262   -1.3447 C   0  0  0  0  0  0  0  0  0  0  0  0
    1.3444    0.7757   -0.7547 O   0  0  0  0  0  0  0  0  0  0  0  0
    0.8213   -0.3064    0.0392 C   0  0  3  0  0  0  0  0  0  0  0  0
    1.6108   -0.7517    1.2419 C   0  0  0  0  0  0  0  0  0  0  0  0
    2.3604    0.1538    2.0109 C   0  0  0  0  0  0  0  0  0  0  0  0
    3.0895   -0.2654    3.1267 C   0  0  0  0  0  0  0  0  0  0  0  0
    3.0783   -1.6057    3.5013 C   0  0  0  0  0  0  0  0  0  0  0  0
    2.3381   -2.5235    2.7616 C   0  0  0  0  0  0  0  0  0  0  0  0
    1.6127   -2.0981    1.6452 C   0  0  0  0  0  0  0  0  0  0  0  0
    2.3589   -0.9935   -1.4475 H   0  0  0  0  0  0  0  0  0  0  0  0
    0.6986   -0.7320   -2.1536 H   0  0  0  0  0  0  0  0  0  0  0  0
   -0.2598   -0.3398    0.1386 H   0  0  0  0  0  0  0  0  0  0  0  0
    2.3803    1.2051    1.7286 H   0  0  0  0  0  0  0  0  0  0  0  0
    3.6656    0.4567    3.6993 H   0  0  0  0  0  0  0  0  0  0  0  0
    3.6453   -1.9337    4.3682 H   0  0  0  0  0  0  0  0  0  0  0  0
    2.3240   -3.5708    3.0518 H   0  0  0  0  0  0  0  0  0  0  0  0
    1.0389   -2.8293    1.0797 H   0  0  0  0  0  0  0  0  0  0  0  0
  1  2  1  0  0  0  0
  1  3  1  0  0  0  0
  1 10  1  0  0  0  0
  1 11  1  0  0  0  0
  2  3  1  0  0  0  0
  3  4  1  0  0  0  0
  3 12  1  0  0  0  0
  4  5  2  0  0  0  0
  4  9  1  0  0  0  0
  5  6  1  0  0  0  0
  5 13  1  0  0  0  0
  6  7  2  0  0  0  0
  6 14  1  0  0  0  0
  7  8  1  0  0  0  0
  7 15  1  0  0  0  0
  8  9  2  0  0  0  0
  8 16  1  0  0  0  0
  9 17  1  0  0  0  0
M  END
$$$$

 OpenBabel12201709253D

 11 10  0  0  1  0  0  0  0  0999 V2000
    0.8740   -0.0655    0.0516 Cl  0  0  0  0  0  0  0  0  0  0  0  0
    2.6566   -0.0235   -0.0754 C   0  0  0  0  0  0  0  0  0  0  0  0
    3.2244   -1.3342   -0.6215 C   0  0  3  0  0  0  0  0  0  0  0  0
    2.6931   -1.5380   -2.5163 Br  0  0  0  0  0  0  0  0  0  0  0  0
    4.7470   -1.3730   -0.5970 C   0  0  0  0  0  0  0  0  0  0  0  0
    5.4202   -1.5323    1.2265 Br  0  0  0  0  0  0  0  0  0  0  0  0
    3.0196    0.1802    0.9344 H   0  0  0  0  0  0  0  0  0  0  0  0
    2.9213    0.8308   -0.7054 H   0  0  0  0  0  0  0  0  0  0  0  0
    2.7988   -2.2004   -0.1071 H   0  0  0  0  0  0  0  0  0  0  0  0
    5.1994   -0.4741   -1.0261 H   0  0  0  0  0  0  0  0  0  0  0  0
    5.1436   -2.2502   -1.1196 H   0  0  0  0  0  0  0  0  0  0  0  0
  1  2  1  0  0  0  0
  2  3  1  0  0  0  0
  2  7  1  0  0  0  0
  2  8  1  0  0  0  0
  3  4  1  0  0  0  0
  3  5  1  0  0  0  0
  3  9  1  0  0  0  0
  5  6  1  0  0  0  0
  5 10  1  0  0  0  0
  5 11  1  0  0  0  0
M  END
$$$$

 OpenBabel12201709253D

 11 10  0  0  0  0  0  0  0  0999 V2000
    0.9212   -0.1234    0.0569 Cl  0  0  0  0  0  0  0  0  0  0  0  0
    2.7058   -0.0585    0.0860 C   0  0  0  0  0  0  0  0  0  0  0  0
    3.2561    1.1302   -0.7070 C   0  0  0  0  0  0  0  0  0  0  0  0
    2.7424    2.6832    0.0492 Cl  0  0  0  0  0  0  0  0  0  0  0  0
    4.7836    1.1296   -0.7720 C   0  0  0  0  0  0  0  0  0  0  0  0
    5.4207   -0.2823   -1.6545 Cl  0  0  0  0  0  0  0  0  0  0  0  0
    3.0439   -1.0102   -0.3328 H   0  0  0  0  0  0  0  0  0  0  0  0
    3.0190   -0.0215    1.1350 H   0  0  0  0  0  0  0  0  0  0  0  0
    2.8429    1.1321   -1.7222 H   0  0  0  0  0  0  0  0  0  0  0  0
    5.2268    1.1163    0.2296 H   0  0  0  0  0  0  0  0  0  0  0  0
    5.1534    2.0171   -1.2952 H   0  0  0  0  0  0  0  0  0  0  0  0
  1  2  1  0  0  0  0
  2  3  1  0  0  0  0
  2  7  1  0  0  0  0
  2  8  1  0  0  0  0
  3  4  1  0  0  0  0
  3  5  1  0  0  0  0
  3  9  1  0  0  0  0
  5  6  1  0  0  0  0
  5 10  1  0  0  0  0
  5 11  1  0  0  0  0
M  END
$$$$

 OpenBabel12201709253D

 13 12  0  0  1  0  0  0  0  0999 V2000
    2.7392    1.3227    0.1894 O   0  0  0  0  0  0  0  0  0  0  0  0
    2.3059   -0.0319    0.0421 C   0  0  0  0  0  0  0  0  0  0  0  0
    2.8815   -0.6016   -1.2584 C   0  0  3  0  0  0  0  0  0  0  0  0
    2.4308    0.2286   -2.3433 O   0  0  0  0  0  0  0  0  0  0  0  0
    4.4106   -0.6442   -1.2865 C   0  0  0  0  0  0  0  0  0  0  0  0
    5.0788   -1.7570   -0.0694 Cl  0  0  0  0  0  0  0  0  0  0  0  0
    2.4095    1.6285    1.0539 H   0  0  0  0  0  0  0  0  0  0  0  0
    1.2122   -0.0159   -0.0073 H   0  0  0  0  0  0  0  0  0  0  0  0
    2.6143   -0.6069    0.9195 H   0  0  0  0  0  0  0  0  0  0  0  0
    2.4773   -1.6049   -1.4316 H   0  0  0  0  0  0  0  0  0  0  0  0
    2.5252    1.1483   -2.0206 H   0  0  0  0  0  0  0  0  0  0  0  0
    4.8441    0.3480   -1.1229 H   0  0  0  0  0  0  0  0  0  0  0  0
    4.7591   -0.9804   -2.2689 H   0  0  0  0  0  0  0  0  0  0  0  0
  1  2  1  0  0  0  0
  1  7  1  0  0  0  0
  2  3  1  0  0  0  0
  2  8  1  0  0  0  0
  2  9  1  0  0  0  0
  3  4  1  0  0  0  0
  3  5  1  0  0  0  0
  3 10  1  0  0  0  0
  4 11  1  0  0  0  0
  5  6  1  0  0  0  0
  5 12  1  0  0  0  0
  5 13  1  0  0  0  0
M  END
$$$$

 OpenBabel12201709253D

 12 12  0  0  0  0  0  0  0  0999 V2000
    1.1208   -0.0543    0.6167 S   0  0  0  0  0  0  0  0  0  0  0  0
    2.6597    0.0001    0.0385 C   0  0  0  0  0  0  0  0  0  0  0  0
    3.4174    1.1408   -0.1322 N   0  0  0  0  0  0  0  0  0  0  0  0
    4.6604    0.8322   -0.7928 C   0  0  0  0  0  0  0  0  0  0  0  0
    4.7590   -0.6865   -0.6746 C   0  0  0  0  0  0  0  0  0  0  0  0
    3.4115   -1.0872   -0.3578 N   0  0  0  0  0  0  0  0  0  0  0  0
    3.0235    2.0654   -0.0079 H   0  0  0  0  0  0  0  0  0  0  0  0
    5.4901    1.3578   -0.3144 H   0  0  0  0  0  0  0  0  0  0  0  0
    4.5734    1.1496   -1.8367 H   0  0  0  0  0  0  0  0  0  0  0  0
    5.4025   -0.9841    0.1594 H   0  0  0  0  0  0  0  0  0  0  0  0
    5.0973   -1.1705   -1.5938 H   0  0  0  0  0  0  0  0  0  0  0  0
    3.0909   -2.0373   -0.2165 H   0  0  0  0  0  0  0  0  0  0  0  0
  1  2  2  0  0  0  0
  2  3  1  0  0  0  0
  2  6  1  0  0  0  0
  3  4  1  0  0  0  0
  3  7  1  0  0  0  0
  4  5  1  0  0  0  0
  4  8  1  0  0  0  0
  4  9  1  0  0  0  0
  5  6  1  0  0  0  0
  5 10  1  0  0  0  0
  5 11  1  0  0  0  0
  6 12  1  0  0  0  0
M  END
$$$$

 OpenBabel12201709253D

 12 12  0  0  0  0  0  0  0  0999 V2000
    1.2600   -0.1733    0.4477 O   0  0  0  0  0  0  0  0  0  0  0  0
    2.4253   -0.1001    0.0948 C   0  0  0  0  0  0  0  0  0  0  0  0
    3.2718    1.1360    0.1377 C   0  0  0  0  0  0  0  0  0  0  0  0
    4.4088    0.7654   -0.7807 C   0  0  0  0  0  0  0  0  0  0  0  0
    4.5021   -0.7265   -0.5954 C   0  0  0  0  0  0  0  0  0  0  0  0
    3.1625   -1.1579   -0.3567 O   0  0  0  0  0  0  0  0  0  0  0  0
    3.6136    1.2993    1.1638 H   0  0  0  0  0  0  0  0  0  0  0  0
    2.7233    2.0054   -0.2314 H   0  0  0  0  0  0  0  0  0  0  0  0
    5.3425    1.2880   -0.5568 H   0  0  0  0  0  0  0  0  0  0  0  0
    4.1318    0.9935   -1.8174 H   0  0  0  0  0  0  0  0  0  0  0  0
    5.1176   -1.0005    0.2682 H   0  0  0  0  0  0  0  0  0  0  0  0
    4.8970   -1.2249   -1.4853 H   0  0  0  0  0  0  0  0  0  0  0  0
  1  2  2  0  0  0  0
  2  3  1  0  0  0  0
  2  6  1  0  0  0  0
  3  4  1  0  0  0  0
  3  7  1  0  0  0  0
  3  8  1  0  0  0  0
  4  5  1  0  0  0  0
  4  9  1  0  0  0  0
  4 10  1  0  0  0  0
  5  6  1  0  0  0  0
  5 11  1  0  0  0  0
  5 12  1  0  0  0  0
M  END
$$$$

 OpenBabel12201709253D

 55 56  0  0  0  0  0  0  0  0999 V2000
    2.5524   -0.9771    2.6444 C   0  0  0  0  0  0  0  0  0  0  0  0
    3.0044   -0.4021    1.3333 C   0  0  0  0  0  0  0  0  0  0  0  0
    3.4854    0.9178    1.3238 C   0  0  0  0  0  0  0  0  0  0  0  0
    4.0480    1.4743    0.1702 C   0  0  0  0  0  0  0  0  0  0  0  0
    4.4522    2.7797    0.2146 O   0  0  0  0  0  0  0  0  0  0  0  0
    4.2175    0.7255   -0.9999 C   0  0  0  0  0  0  0  0  0  0  0  0
    3.6530   -0.5694   -0.9901 C   0  0  0  0  0  0  0  0  0  0  0  0
    2.9774   -1.1071    0.1234 C   0  0  0  0  0  0  0  0  0  0  0  0
    2.1988   -2.7145   -0.0958 S   0  0  0  0  0  0  0  0  0  0  0  0
    0.4932   -2.2938   -0.5084 C   0  0  0  0  0  0  0  0  0  0  0  0
   -0.5160   -2.8385    0.3205 C   0  0  0  0  0  0  0  0  0  0  0  0
   -1.9029   -2.6134    0.1104 C   0  0  0  0  0  0  0  0  0  0  0  0
   -2.2192   -1.6707   -0.8765 C   0  0  0  0  0  0  0  0  0  0  0  0
   -3.4667   -1.1907   -1.1454 O   0  0  0  0  0  0  0  0  0  0  0  0
   -1.2421   -1.1654   -1.7329 C   0  0  0  0  0  0  0  0  0  0  0  0
    0.0932   -1.5684   -1.6345 C   0  0  0  0  0  0  0  0  0  0  0  0
    0.9850   -1.2475   -2.8026 C   0  0  0  0  0  0  0  0  0  0  0  0
   -2.9628   -3.4407    0.8729 C   0  0  0  0  0  0  0  0  0  0  0  0
   -2.3618   -4.5986    1.7161 C   0  0  0  0  0  0  0  0  0  0  0  0
   -3.7622   -2.5610    1.8543 C   0  0  0  0  0  0  0  0  0  0  0  0
   -3.9207   -4.1404   -0.1285 C   0  0  0  0  0  0  0  0  0  0  0  0
    4.9725    1.2621   -2.2338 C   0  0  0  0  0  0  0  0  0  0  0  0
    6.4157    1.6610   -1.8478 C   0  0  0  0  0  0  0  0  0  0  0  0
    5.1064    0.2209   -3.3745 C   0  0  0  0  0  0  0  0  0  0  0  0
    4.2459    2.4823   -2.8394 C   0  0  0  0  0  0  0  0  0  0  0  0
    3.1073   -0.5063    3.4734 H   0  0  0  0  0  0  0  0  0  0  0  0
    2.7798   -2.0443    2.7135 H   0  0  0  0  0  0  0  0  0  0  0  0
    1.4888   -0.8080    2.8033 H   0  0  0  0  0  0  0  0  0  0  0  0
    3.4521    1.5015    2.2398 H   0  0  0  0  0  0  0  0  0  0  0  0
    4.0003    3.2212    0.9524 H   0  0  0  0  0  0  0  0  0  0  0  0
    3.7223   -1.1965   -1.8710 H   0  0  0  0  0  0  0  0  0  0  0  0
   -0.1873   -3.4987    1.1186 H   0  0  0  0  0  0  0  0  0  0  0  0
   -4.1013   -1.5211   -0.4988 H   0  0  0  0  0  0  0  0  0  0  0  0
   -1.5507   -0.4962   -2.5333 H   0  0  0  0  0  0  0  0  0  0  0  0
    0.3859   -1.1285   -3.7141 H   0  0  0  0  0  0  0  0  0  0  0  0
    1.6682   -2.0766   -3.0106 H   0  0  0  0  0  0  0  0  0  0  0  0
    1.5346   -0.3206   -2.6456 H   0  0  0  0  0  0  0  0  0  0  0  0
   -1.7184   -4.2266    2.5208 H   0  0  0  0  0  0  0  0  0  0  0  0
   -1.7758   -5.2871    1.0952 H   0  0  0  0  0  0  0  0  0  0  0  0
   -3.1529   -5.1914    2.1927 H   0  0  0  0  0  0  0  0  0  0  0  0
   -3.1004   -2.1065    2.6000 H   0  0  0  0  0  0  0  0  0  0  0  0
   -4.5101   -3.1569    2.3915 H   0  0  0  0  0  0  0  0  0  0  0  0
   -4.3053   -1.7462    1.3715 H   0  0  0  0  0  0  0  0  0  0  0  0
   -3.3654   -4.8123   -0.7951 H   0  0  0  0  0  0  0  0  0  0  0  0
   -4.4773   -3.4503   -0.7662 H   0  0  0  0  0  0  0  0  0  0  0  0
   -4.6697   -4.7436    0.3982 H   0  0  0  0  0  0  0  0  0  0  0  0
    6.9607    0.8068   -1.4287 H   0  0  0  0  0  0  0  0  0  0  0  0
    6.4533    2.4661   -1.1084 H   0  0  0  0  0  0  0  0  0  0  0  0
    6.9741    2.0150   -2.7227 H   0  0  0  0  0  0  0  0  0  0  0  0
    5.6587   -0.6671   -3.0445 H   0  0  0  0  0  0  0  0  0  0  0  0
    5.6500    0.6373   -4.2312 H   0  0  0  0  0  0  0  0  0  0  0  0
    4.1272   -0.1013   -3.7476 H   0  0  0  0  0  0  0  0  0  0  0  0
    4.2113    3.3371   -2.1581 H   0  0  0  0  0  0  0  0  0  0  0  0
    3.2139    2.2333   -3.1116 H   0  0  0  0  0  0  0  0  0  0  0  0
    4.7542    2.8284   -3.7486 H   0  0  0  0  0  0  0  0  0  0  0  0
  1  2  1  0  0  0  0
  1 26  1  0  0  0  0
  1 27  1  0  0  0  0
  1 28  1  0  0  0  0
  2  3  2  0  0  0  0
  2  8  1  0  0  0  0
  3  4  1  0  0  0  0
  3 29  1  0  0  0  0
  4  5  1  0  0  0  0
  4  6  2  0  0  0  0
  5 30  1  0  0  0  0
  6  7  1  0  0  0  0
  6 22  1  0  0  0  0
  7  8  2  0  0  0  0
  7 31  1  0  0  0  0
  8  9  1  0  0  0  0
  9 10  1  0  0  0  0
 10 11  2  0  0  0  0
 10 16  1  0  0  0  0
 11 12  1  0  0  0  0
 11 32  1  0  0  0  0
 12 13  2  0  0  0  0
 12 18  1  0  0  0  0
 13 14  1  0  0  0  0
 13 15  1  0  0  0  0
 14 33  1  0  0  0  0
 15 16  2  0  0  0  0
 15 34  1  0  0  0  0
 16 17  1  0  0  0  0
 17 35  1  0  0  0  0
 17 36  1  0  0  0  0
 17 37  1  0  0  0  0
 18 19  1  0  0  0  0
 18 20  1  0  0  0  0
 18 21  1  0  0  0  0
 19 38  1  0  0  0  0
 19 39  1  0  0  0  0
 19 40  1  0  0  0  0
 20 41  1  0  0  0  0
 20 42  1  0  0  0  0
 20 43  1  0  0  0  0
 21 44  1  0  0  0  0
 21 45  1  0  0  0  0
 21 46  1  0  0  0  0
 22 23  1  0  0  0  0
 22 24  1  0  0  0  0
 22 25  1  0  0  0  0
 23 47  1  0  0  0  0
 23 48  1  0  0  0  0
 23 49  1  0  0  0  0
 24 50  1  0  0  0  0
 24 51  1  0  0  0  0
 24 52  1  0  0  0  0
 25 53  1  0  0  0  0
 25 54  1  0  0  0  0
 25 55  1  0  0  0  0
M  END
$$$$

 OpenBabel12201709253D

 28 28  0  0  0  0  0  0  0  0999 V2000
    3.1408   -1.0045   -1.0521 C   0  0  0  0  0  0  0  0  0  0  0  0
    4.0138   -0.2326   -0.2491 O   0  0  0  0  0  0  0  0  0  0  0  0
    3.8431   -0.5342    1.4458 P   0  0  0  0  0  0  0  0  0  0  0  0
    4.7439   -1.7721    1.3203 O   0  0  0  0  0  0  0  0  0  0  0  0
    4.8002    0.7805    1.7317 O   0  0  0  0  0  0  0  0  0  0  0  0
    6.1122    0.8896    1.2371 C   0  0  0  0  0  0  0  0  0  0  0  0
    3.6724   -0.8359    3.1407 O   0  0  0  0  0  0  0  0  0  0  0  0
    3.8068    0.1204    4.1373 C   0  0  0  0  0  0  0  0  0  0  0  0
    3.4160    1.4066    4.1151 C   0  0  0  0  0  0  0  0  0  0  0  0
    2.4926    2.1829    2.8993 Cl  0  0  0  0  0  0  0  0  0  0  0  0
    4.4255   -0.3769    5.3782 C   0  0  0  0  0  0  0  0  0  0  0  0
    5.8215   -0.5246    5.4473 C   0  0  0  0  0  0  0  0  0  0  0  0
    6.4407   -0.9137    6.6435 C   0  0  0  0  0  0  0  0  0  0  0  0
    8.1623   -1.0256    6.6678 Cl  0  0  0  0  0  0  0  0  0  0  0  0
    5.6614   -1.1751    7.7783 C   0  0  0  0  0  0  0  0  0  0  0  0
    6.3510   -1.6307    9.2970 Cl  0  0  0  0  0  0  0  0  0  0  0  0
    4.2760   -1.0329    7.7236 C   0  0  0  0  0  0  0  0  0  0  0  0
    3.6586   -0.6387    6.5296 C   0  0  0  0  0  0  0  0  0  0  0  0
    1.9363   -0.4693    6.5395 Cl  0  0  0  0  0  0  0  0  0  0  0  0
    3.2162   -0.6562   -2.0852 H   0  0  0  0  0  0  0  0  0  0  0  0
    2.1099   -0.8817   -0.7094 H   0  0  0  0  0  0  0  0  0  0  0  0
    3.4247   -2.0591   -1.0118 H   0  0  0  0  0  0  0  0  0  0  0  0
    6.5698    1.7653    1.7098 H   0  0  0  0  0  0  0  0  0  0  0  0
    6.1086    1.0592    0.1582 H   0  0  0  0  0  0  0  0  0  0  0  0
    6.7024    0.0097    1.4937 H   0  0  0  0  0  0  0  0  0  0  0  0
    3.6226    2.0952    4.9292 H   0  0  0  0  0  0  0  0  0  0  0  0
    6.4337   -0.3190    4.5692 H   0  0  0  0  0  0  0  0  0  0  0  0
    3.6680   -1.2234    8.6051 H   0  0  0  0  0  0  0  0  0  0  0  0
  1  2  1  0  0  0  0
  1 20  1  0  0  0  0
  1 21  1  0  0  0  0
  1 22  1  0  0  0  0
  2  3  1  0  0  0  0
  3  4  2  0  0  0  0
  3  5  1  0  0  0  0
  3  7  1  0  0  0  0
  5  6  1  0  0  0  0
  6 23  1  0  0  0  0
  6 24  1  0  0  0  0
  6 25  1  0  0  0  0
  7  8  1  0  0  0  0
  8  9  2  3  0  0  0
  8 11  1  0  0  0  0
  9 10  1  0  0  0  0
  9 26  1  0  0  0  0
 11 12  2  0  0  0  0
 11 18  1  0  0  0  0
 12 13  1  0  0  0  0
 12 27  1  0  0  0  0
 13 14  1  0  0  0  0
 13 15  2  0  0  0  0
 15 16  1  0  0  0  0
 15 17  1  0  0  0  0
 17 18  2  0  0  0  0
 17 28  1  0  0  0  0
 18 19  1  0  0  0  0
M  END
$$$$

 OpenBabel12201709253D

 42 43  0  0  0  0  0  0  0  0999 V2000
   12.0131   -4.6553    3.1906 C   0  0  0  0  0  0  0  0  0  0  0  0
   11.1227   -5.3826    2.2185 C   0  0  0  0  0  0  0  0  0  0  0  0
   11.5831   -6.0471    1.2925 O   0  0  0  0  0  0  0  0  0  0  0  0
    9.6466   -5.2483    2.3641 C   0  0  0  0  0  0  0  0  0  0  0  0
    8.8578   -5.3735    1.2118 C   0  0  0  0  0  0  0  0  0  0  0  0
    7.4710   -5.2371    1.2880 C   0  0  0  0  0  0  0  0  0  0  0  0
    6.8691   -5.0025    2.5273 C   0  0  0  0  0  0  0  0  0  0  0  0
    7.6444   -4.8886    3.6862 C   0  0  0  0  0  0  0  0  0  0  0  0
    9.0375   -5.0069    3.6027 C   0  0  0  0  0  0  0  0  0  0  0  0
    5.0956   -4.8514    2.6036 S   0  0  0  0  0  0  0  0  0  0  0  0
    4.6927   -4.6456    3.9760 O   0  0  0  0  0  0  0  0  0  0  0  0
    4.7167   -3.9128    1.5686 O   0  0  0  0  0  0  0  0  0  0  0  0
    4.5532   -6.3463    2.0883 N   0  0  0  0  0  0  0  0  0  0  0  0
    4.9223   -7.5212    2.7228 C   0  0  0  0  0  0  0  0  0  0  0  0
    5.6461   -7.5289    3.7015 O   0  0  0  0  0  0  0  0  0  0  0  0
    4.4572   -8.6676    2.1250 N   0  0  0  0  0  0  0  0  0  0  0  0
    5.0682   -9.9408    2.5033 C   0  0  0  0  0  0  0  0  0  0  0  0
    4.1047  -11.1309    2.4255 C   0  0  0  0  0  0  0  0  0  0  0  0
    3.9050  -11.7141    1.0276 C   0  0  0  0  0  0  0  0  0  0  0  0
    5.2101  -11.8839    0.2565 C   0  0  0  0  0  0  0  0  0  0  0  0
    6.0289  -10.6000    0.2545 C   0  0  0  0  0  0  0  0  0  0  0  0
    6.3443  -10.1722    1.6847 C   0  0  0  0  0  0  0  0  0  0  0  0
   13.0539   -4.7555    2.8654 H   0  0  0  0  0  0  0  0  0  0  0  0
   11.9261   -5.0815    4.1918 H   0  0  0  0  0  0  0  0  0  0  0  0
   11.7649   -3.5902    3.1971 H   0  0  0  0  0  0  0  0  0  0  0  0
    9.3274   -5.5669    0.2484 H   0  0  0  0  0  0  0  0  0  0  0  0
    6.8719   -5.3142    0.3836 H   0  0  0  0  0  0  0  0  0  0  0  0
    7.1737   -4.7251    4.6543 H   0  0  0  0  0  0  0  0  0  0  0  0
    9.6221   -4.9329    4.5159 H   0  0  0  0  0  0  0  0  0  0  0  0
    4.0448   -6.3232    1.2176 H   0  0  0  0  0  0  0  0  0  0  0  0
    3.9663   -8.5986    1.2486 H   0  0  0  0  0  0  0  0  0  0  0  0
    5.3620   -9.8519    3.5563 H   0  0  0  0  0  0  0  0  0  0  0  0
    3.1306  -10.8669    2.8550 H   0  0  0  0  0  0  0  0  0  0  0  0
    4.5148  -11.9287    3.0600 H   0  0  0  0  0  0  0  0  0  0  0  0
    3.2256  -11.0708    0.4578 H   0  0  0  0  0  0  0  0  0  0  0  0
    3.4137  -12.6914    1.1164 H   0  0  0  0  0  0  0  0  0  0  0  0
    4.9920  -12.1873   -0.7734 H   0  0  0  0  0  0  0  0  0  0  0  0
    5.8023  -12.6909    0.7065 H   0  0  0  0  0  0  0  0  0  0  0  0
    5.4769   -9.8080   -0.2661 H   0  0  0  0  0  0  0  0  0  0  0  0
    6.9619  -10.7549   -0.2979 H   0  0  0  0  0  0  0  0  0  0  0  0
    6.9651   -9.2683    1.6671 H   0  0  0  0  0  0  0  0  0  0  0  0
    6.9408  -10.9559    2.1686 H   0  0  0  0  0  0  0  0  0  0  0  0
  1  2  1  0  0  0  0
  1 23  1  0  0  0  0
  1 24  1  0  0  0  0
  1 25  1  0  0  0  0
  2  3  2  0  0  0  0
  2  4  1  0  0  0  0
  4  5  2  0  0  0  0
  4  9  1  0  0  0  0
  5  6  1  0  0  0  0
  5 26  1  0  0  0  0
  6  7  2  0  0  0  0
  6 27  1  0  0  0  0
  7  8  1  0  0  0  0
  7 10  1  0  0  0  0
  8  9  2  0  0  0  0
  8 28  1  0  0  0  0
  9 29  1  0  0  0  0
 10 11  2  0  0  0  0
 10 12  2  0  0  0  0
 10 13  1  0  0  0  0
 13 14  1  0  0  0  0
 13 30  1  0  0  0  0
 14 15  2  0  0  0  0
 14 16  1  0  0  0  0
 16 17  1  0  0  0  0
 16 31  1  0  0  0  0
 17 18  1  0  0  0  0
 17 22  1  0  0  0  0
 17 32  1  0  0  0  0
 18 19  1  0  0  0  0
 18 33  1  0  0  0  0
 18 34  1  0  0  0  0
 19 20  1  0  0  0  0
 19 35  1  0  0  0  0
 19 36  1  0  0  0  0
 20 21  1  0  0  0  0
 20 37  1  0  0  0  0
 20 38  1  0  0  0  0
 21 22  1  0  0  0  0
 21 39  1  0  0  0  0
 21 40  1  0  0  0  0
 22 41  1  0  0  0  0
 22 42  1  0  0  0  0
M  END
$$$$

 OpenBabel12201709253D

 25 26  0  0  0  0  0  0  0  0999 V2000
    3.4678   -0.7060   -2.1222 O   0  0  0  0  0  0  0  0  0  0  0  0
    3.6572   -0.3492   -0.8093 C   0  0  0  0  0  0  0  0  0  0  0  0
    4.4857    0.7363   -0.4875 C   0  0  0  0  0  0  0  0  0  0  0  0
    5.3030    1.6104   -1.7336 Cl  0  0  0  0  0  0  0  0  0  0  0  0
    4.6988    1.1020    0.8392 C   0  0  0  0  0  0  0  0  0  0  0  0
    4.0689    0.3798    1.8482 C   0  0  0  0  0  0  0  0  0  0  0  0
    4.3178    0.8233    3.4929 Cl  0  0  0  0  0  0  0  0  0  0  0  0
    3.2642   -0.7174    1.5414 C   0  0  0  0  0  0  0  0  0  0  0  0
    3.0472   -1.0968    0.2088 C   0  0  0  0  0  0  0  0  0  0  0  0
    2.2560   -2.6587   -0.1097 S   0  0  0  0  0  0  0  0  0  0  0  0
    0.4918   -2.4067   -0.2230 C   0  0  0  0  0  0  0  0  0  0  0  0
   -0.1799   -3.4046   -0.9570 C   0  0  0  0  0  0  0  0  0  0  0  0
   -1.5733   -3.4405   -1.0288 C   0  0  0  0  0  0  0  0  0  0  0  0
   -2.3499   -4.6942   -1.9162 Cl  0  0  0  0  0  0  0  0  0  0  0  0
   -2.3370   -2.4885   -0.3692 C   0  0  0  0  0  0  0  0  0  0  0  0
   -1.6889   -1.4829    0.3429 C   0  0  0  0  0  0  0  0  0  0  0  0
   -2.6488   -0.3084    1.1717 Cl  0  0  0  0  0  0  0  0  0  0  0  0
   -0.2841   -1.4302    0.4153 C   0  0  0  0  0  0  0  0  0  0  0  0
    0.3083   -0.4260    1.1361 O   0  0  0  0  0  0  0  0  0  0  0  0
    3.9540   -0.0665   -2.6747 H   0  0  0  0  0  0  0  0  0  0  0  0
    5.3584    1.9283    1.0872 H   0  0  0  0  0  0  0  0  0  0  0  0
    2.8112   -1.2913    2.3479 H   0  0  0  0  0  0  0  0  0  0  0  0
    0.3891   -4.1841   -1.4626 H   0  0  0  0  0  0  0  0  0  0  0  0
   -3.4221   -2.5338   -0.4057 H   0  0  0  0  0  0  0  0  0  0  0  0
   -0.3975    0.1737    1.4445 H   0  0  0  0  0  0  0  0  0  0  0  0
  1  2  1  0  0  0  0
  1 20  1  0  0  0  0
  2  3  2  0  0  0  0
  2  9  1  0  0  0  0
  3  4  1  0  0  0  0
  3  5  1  0  0  0  0
  5  6  2  0  0  0  0
  5 21  1  0  0  0  0
  6  7  1  0  0  0  0
  6  8  1  0  0  0  0
  8  9  2  0  0  0  0
  8 22  1  0  0  0  0
  9 10  1  0  0  0  0
 10 11  1  0  0  0  0
 11 12  2  0  0  0  0
 11 18  1  0  0  0  0
 12 13  1  0  0  0  0
 12 23  1  0  0  0  0
 13 14  1  0  0  0  0
 13 15  2  0  0  0  0
 15 16  1  0  0  0  0
 15 24  1  0  0  0  0
 16 17  1  0  0  0  0
 16 18  2  0  0  0  0
 18 19  1  0  0  0  0
 19 25  1  0  0  0  0
M  END
$$$$

 OpenBabel12201709253D

 24 24  0  0  0  0  0  0  0  0999 V2000
    1.3323    0.5740    0.5970 C   0  0  0  0  0  0  0  0  0  0  0  0
    2.4552   -0.0737    0.0076 O   0  0  0  0  0  0  0  0  0  0  0  0
    2.9323    0.5213   -1.1328 C   0  0  0  0  0  0  0  0  0  0  0  0
    2.8933    1.9020   -1.3534 C   0  0  0  0  0  0  0  0  0  0  0  0
    3.3994    2.4571   -2.5387 C   0  0  0  0  0  0  0  0  0  0  0  0
    3.3087    3.9478   -2.7643 C   0  0  0  0  0  0  0  0  0  0  0  0
    2.0135    4.3488   -3.4130 C   0  0  0  0  0  0  0  0  0  0  0  0
    1.1278    5.2011   -2.8798 C   0  0  0  0  0  0  0  0  0  0  0  0
    3.9536    1.6089   -3.5056 C   0  0  0  0  0  0  0  0  0  0  0  0
    4.0243    0.2317   -3.2825 C   0  0  0  0  0  0  0  0  0  0  0  0
    3.5181   -0.3055   -2.0969 C   0  0  0  0  0  0  0  0  0  0  0  0
    3.5771   -1.6565   -1.8821 O   0  0  0  0  0  0  0  0  0  0  0  0
    0.9387   -0.0786    1.3816 H   0  0  0  0  0  0  0  0  0  0  0  0
    0.5361    0.7354   -0.1387 H   0  0  0  0  0  0  0  0  0  0  0  0
    1.6211    1.5162    1.0736 H   0  0  0  0  0  0  0  0  0  0  0  0
    2.4840    2.5715   -0.6054 H   0  0  0  0  0  0  0  0  0  0  0  0
    4.1422    4.2743   -3.3976 H   0  0  0  0  0  0  0  0  0  0  0  0
    3.4437    4.4648   -1.8053 H   0  0  0  0  0  0  0  0  0  0  0  0
    1.7999    3.9126   -4.3864 H   0  0  0  0  0  0  0  0  0  0  0  0
    1.2899    5.6669   -1.9127 H   0  0  0  0  0  0  0  0  0  0  0  0
    0.2127    5.4508   -3.4088 H   0  0  0  0  0  0  0  0  0  0  0  0
    4.3404    2.0174   -4.4368 H   0  0  0  0  0  0  0  0  0  0  0  0
    4.4664   -0.4041   -4.0413 H   0  0  0  0  0  0  0  0  0  0  0  0
    4.0335   -2.0746   -2.6274 H   0  0  0  0  0  0  0  0  0  0  0  0
  1  2  1  0  0  0  0
  1 13  1  0  0  0  0
  1 14  1  0  0  0  0
  1 15  1  0  0  0  0
  2  3  1  0  0  0  0
  3  4  2  0  0  0  0
  3 11  1  0  0  0  0
  4  5  1  0  0  0  0
  4 16  1  0  0  0  0
  5  6  1  0  0  0  0
  5  9  2  0  0  0  0
  6  7  1  0  0  0  0
  6 17  1  0  0  0  0
  6 18  1  0  0  0  0
  7  8  2  0  0  0  0
  7 19  1  0  0  0  0
  8 20  1  0  0  0  0
  8 21  1  0  0  0  0
  9 10  1  0  0  0  0
  9 22  1  0  0  0  0
 10 11  2  0  0  0  0
 10 23  1  0  0  0  0
 11 12  1  0  0  0  0
 12 24  1  0  0  0  0
M  END
$$$$

 OpenBabel12201709253D

 32 33  0  0  0  0  0  0  0  0999 V2000
    1.1664    0.0640   -1.1219 C   0  0  0  0  0  0  0  0  0  0  0  0
    2.5538   -0.0511   -0.5562 C   0  0  0  0  0  0  0  0  0  0  0  0
    3.3269    1.1156   -0.4140 C   0  0  0  0  0  0  0  0  0  0  0  0
    4.6251    1.0565    0.0922 C   0  0  0  0  0  0  0  0  0  0  0  0
    5.1619   -0.1651    0.4836 C   0  0  0  0  0  0  0  0  0  0  0  0
    4.4003   -1.3322    0.3468 C   0  0  0  0  0  0  0  0  0  0  0  0
    3.0982   -1.2986   -0.1757 C   0  0  0  0  0  0  0  0  0  0  0  0
    2.4525   -2.5341   -0.4098 N   0  0  0  0  0  0  0  0  0  0  0  0
    1.3337   -2.6055    0.1454 N   0  0  0  0  0  0  0  0  0  0  0  0
    0.6926   -3.8255   -0.1594 C   0  0  0  0  0  0  0  0  0  0  0  0
    1.2947   -5.0608    0.0767 C   0  0  0  0  0  0  0  0  0  0  0  0
    0.6048   -6.2505   -0.1756 C   0  0  0  0  0  0  0  0  0  0  0  0
   -0.6914   -6.2452   -0.7053 C   0  0  0  0  0  0  0  0  0  0  0  0
   -1.3732   -7.4699   -0.7956 N   0  0  0  0  0  0  0  0  0  0  0  0
   -1.3337   -5.0105   -0.9014 C   0  0  0  0  0  0  0  0  0  0  0  0
   -2.7625   -4.8797   -1.3593 C   0  0  0  0  0  0  0  0  0  0  0  0
   -0.6242   -3.8153   -0.6377 C   0  0  0  0  0  0  0  0  0  0  0  0
    0.9447    1.0910   -1.4315 H   0  0  0  0  0  0  0  0  0  0  0  0
    0.4218   -0.2093   -0.3676 H   0  0  0  0  0  0  0  0  0  0  0  0
    1.0564   -0.5764   -2.0020 H   0  0  0  0  0  0  0  0  0  0  0  0
    2.9247    2.0795   -0.7181 H   0  0  0  0  0  0  0  0  0  0  0  0
    5.2172    1.9649    0.1721 H   0  0  0  0  0  0  0  0  0  0  0  0
    6.1749   -0.2145    0.8743 H   0  0  0  0  0  0  0  0  0  0  0  0
    4.8383   -2.2848    0.6368 H   0  0  0  0  0  0  0  0  0  0  0  0
    2.3020   -5.1010    0.4812 H   0  0  0  0  0  0  0  0  0  0  0  0
    1.0954   -7.1927    0.0561 H   0  0  0  0  0  0  0  0  0  0  0  0
   -0.7585   -8.2719   -0.8969 H   0  0  0  0  0  0  0  0  0  0  0  0
   -2.1206   -7.4892   -1.4791 H   0  0  0  0  0  0  0  0  0  0  0  0
   -3.2319   -5.8355   -1.6055 H   0  0  0  0  0  0  0  0  0  0  0  0
   -2.8109   -4.2598   -2.2612 H   0  0  0  0  0  0  0  0  0  0  0  0
   -3.3647   -4.4131   -0.5727 H   0  0  0  0  0  0  0  0  0  0  0  0
   -1.1151   -2.8561   -0.7914 H   0  0  0  0  0  0  0  0  0  0  0  0
  1  2  1  0  0  0  0
  1 18  1  0  0  0  0
  1 19  1  0  0  0  0
  1 20  1  0  0  0  0
  2  3  2  0  0  0  0
  2  7  1  0  0  0  0
  3  4  1  0  0  0  0
  3 21  1  0  0  0  0
  4  5  2  0  0  0  0
  4 22  1  0  0  0  0
  5  6  1  0  0  0  0
  5 23  1  0  0  0  0
  6  7  2  0  0  0  0
  6 24  1  0  0  0  0
  7  8  1  0  0  0  0
  8  9  2  3  0  0  0
  9 10  1  0  0  0  0
 10 11  2  0  0  0  0
 10 17  1  0  0  0  0
 11 12  1  0  0  0  0
 11 25  1  0  0  0  0
 12 13  2  0  0  0  0
 12 26  1  0  0  0  0
 13 14  1  0  0  0  0
 13 15  1  0  0  0  0
 14 27  1  0  0  0  0
 14 28  1  0  0  0  0
 15 16  1  0  0  0  0
 15 17  2  0  0  0  0
 16 29  1  0  0  0  0
 16 30  1  0  0  0  0
 16 31  1  0  0  0  0
 17 32  1  0  0  0  0
M  END
$$$$

 OpenBabel12201709253D

 36 35  0  0  0  0  0  0  0  0999 V2000
    3.9296    1.4198    1.4767 C   0  0  0  0  0  0  0  0  0  0  0  0
    3.0280    1.0138    0.3182 C   0  0  0  0  0  0  0  0  0  0  0  0
    3.6081    1.3150   -1.0088 N   0  0  0  0  0  0  0  0  0  0  0  0
    3.2345    2.5874   -1.6672 C   0  0  0  0  0  0  0  0  0  0  0  0
    2.4112    3.6045   -0.8832 C   0  0  0  0  0  0  0  0  0  0  0  0
    4.4461    0.3651   -1.6651 C   0  0  0  0  0  0  0  0  0  0  0  0
    4.9121   -1.1236   -1.0066 S   0  0  0  0  0  0  0  0  0  0  0  0
    4.9161    0.7460   -3.3504 S   0  0  0  0  0  0  0  0  0  0  0  0
    6.9778    0.5807   -3.3324 S   0  0  0  0  0  0  0  0  0  0  0  0
    7.5566    1.2133   -4.8895 C   0  0  0  0  0  0  0  0  0  0  0  0
    6.7787    2.3854   -5.8103 S   0  0  0  0  0  0  0  0  0  0  0  0
    8.8323    0.7228   -5.2051 N   0  0  0  0  0  0  0  0  0  0  0  0
    9.0399   -0.7237   -5.4047 C   0  0  0  0  0  0  0  0  0  0  0  0
   10.1530   -1.3046   -4.5427 C   0  0  0  0  0  0  0  0  0  0  0  0
    9.9376    1.6481   -5.5040 C   0  0  0  0  0  0  0  0  0  0  0  0
   10.4900    1.5469   -6.9158 C   0  0  0  0  0  0  0  0  0  0  0  0
    3.4652    1.1372    2.4279 H   0  0  0  0  0  0  0  0  0  0  0  0
    4.1025    2.4992    1.4937 H   0  0  0  0  0  0  0  0  0  0  0  0
    4.9059    0.9295    1.4230 H   0  0  0  0  0  0  0  0  0  0  0  0
    2.0497    1.4902    0.4180 H   0  0  0  0  0  0  0  0  0  0  0  0
    2.8145   -0.0566    0.3915 H   0  0  0  0  0  0  0  0  0  0  0  0
    2.6662    2.3249   -2.5673 H   0  0  0  0  0  0  0  0  0  0  0  0
    4.1597    3.0797   -1.9871 H   0  0  0  0  0  0  0  0  0  0  0  0
    1.4205    3.2165   -0.6295 H   0  0  0  0  0  0  0  0  0  0  0  0
    2.2555    4.5011   -1.4917 H   0  0  0  0  0  0  0  0  0  0  0  0
    2.9164    3.9113    0.0376 H   0  0  0  0  0  0  0  0  0  0  0  0
    9.2665   -0.8812   -6.4620 H   0  0  0  0  0  0  0  0  0  0  0  0
    8.1093   -1.2600   -5.2082 H   0  0  0  0  0  0  0  0  0  0  0  0
   11.1183   -0.8342   -4.7520 H   0  0  0  0  0  0  0  0  0  0  0  0
   10.2566   -2.3751   -4.7456 H   0  0  0  0  0  0  0  0  0  0  0  0
    9.9365   -1.1757   -3.4780 H   0  0  0  0  0  0  0  0  0  0  0  0
   10.7341    1.4428   -4.7820 H   0  0  0  0  0  0  0  0  0  0  0  0
    9.6197    2.6775   -5.3090 H   0  0  0  0  0  0  0  0  0  0  0  0
   10.9439    0.5680   -7.1007 H   0  0  0  0  0  0  0  0  0  0  0  0
   11.2707    2.3003   -7.0646 H   0  0  0  0  0  0  0  0  0  0  0  0
    9.7100    1.7078   -7.6656 H   0  0  0  0  0  0  0  0  0  0  0  0
  1  2  1  0  0  0  0
  1 17  1  0  0  0  0
  1 18  1  0  0  0  0
  1 19  1  0  0  0  0
  2  3  1  0  0  0  0
  2 20  1  0  0  0  0
  2 21  1  0  0  0  0
  3  4  1  0  0  0  0
  3  6  1  0  0  0  0
  4  5  1  0  0  0  0
  4 22  1  0  0  0  0
  4 23  1  0  0  0  0
  5 24  1  0  0  0  0
  5 25  1  0  0  0  0
  5 26  1  0  0  0  0
  6  7  2  0  0  0  0
  6  8  1  0  0  0  0
  8  9  1  0  0  0  0
  9 10  1  0  0  0  0
 10 11  2  0  0  0  0
 10 12  1  0  0  0  0
 12 13  1  0  0  0  0
 12 15  1  0  0  0  0
 13 14  1  0  0  0  0
 13 27  1  0  0  0  0
 13 28  1  0  0  0  0
 14 29  1  0  0  0  0
 14 30  1  0  0  0  0
 14 31  1  0  0  0  0
 15 16  1  0  0  0  0
 15 32  1  0  0  0  0
 15 33  1  0  0  0  0
 16 34  1  0  0  0  0
 16 35  1  0  0  0  0
 16 36  1  0  0  0  0
M  END
$$$$

 OpenBabel12201709253D

 11 11  0  0  0  0  0  0  0  0999 V2000
    2.2578    0.9879    0.4356 O   0  0  0  0  0  0  0  0  0  0  0  0
    2.2707   -0.1402   -0.0517 C   0  0  0  0  0  0  0  0  0  0  0  0
    2.9971   -0.5212   -1.2320 C   0  0  0  0  0  0  0  0  0  0  0  0
    3.8103    0.1987   -2.0845 C   0  0  0  0  0  0  0  0  0  0  0  0
    4.2541   -0.7060   -3.0787 C   0  0  0  0  0  0  0  0  0  0  0  0
    3.6855   -1.9198   -2.7723 C   0  0  0  0  0  0  0  0  0  0  0  0
    2.9207   -1.8191   -1.6541 O   0  0  0  0  0  0  0  0  0  0  0  0
    1.6939   -0.9526    0.4221 H   0  0  0  0  0  0  0  0  0  0  0  0
    4.0473    1.2502   -1.9897 H   0  0  0  0  0  0  0  0  0  0  0  0
    4.9075   -0.4997   -3.9150 H   0  0  0  0  0  0  0  0  0  0  0  0
    3.7240   -2.9008   -3.2260 H   0  0  0  0  0  0  0  0  0  0  0  0
  1  2  2  0  0  0  0
  2  3  1  0  0  0  0
  2  8  1  0  0  0  0
  3  4  2  0  0  0  0
  3  7  1  0  0  0  0
  4  5  1  0  0  0  0
  4  9  1  0  0  0  0
  5  6  2  0  0  0  0
  5 10  1  0  0  0  0
  6  7  1  0  0  0  0
  6 11  1  0  0  0  0
M  END
$$$$

 OpenBabel12201709253D

 19 19  0  0  1  0  0  0  0  0999 V2000
    1.1693    0.0388   -0.9718 C   0  0  0  0  0  0  0  0  0  0  0  0
    2.3748   -0.0156   -0.0390 C   0  0  3  0  0  0  0  0  0  0  0  0
    3.4452   -0.6113   -0.7761 O   0  0  0  0  0  0  0  0  0  0  0  0
    2.8385    1.3068    0.5447 C   0  0  0  0  0  0  0  0  0  0  0  0
    2.2128    2.5321    0.2750 C   0  0  0  0  0  0  0  0  0  0  0  0
    2.6810    3.7171    0.8495 C   0  0  0  0  0  0  0  0  0  0  0  0
    3.7825    3.6961    1.7011 C   0  0  0  0  0  0  0  0  0  0  0  0
    4.4168    2.4898    1.9821 C   0  0  0  0  0  0  0  0  0  0  0  0
    3.9469    1.3054    1.4114 C   0  0  0  0  0  0  0  0  0  0  0  0
    0.9211   -0.9670   -1.3287 H   0  0  0  0  0  0  0  0  0  0  0  0
    1.3849    0.6379   -1.8641 H   0  0  0  0  0  0  0  0  0  0  0  0
    0.2873    0.4520   -0.4730 H   0  0  0  0  0  0  0  0  0  0  0  0
    2.1322   -0.6900    0.7911 H   0  0  0  0  0  0  0  0  0  0  0  0
    4.0028    0.1132   -1.1091 H   0  0  0  0  0  0  0  0  0  0  0  0
    1.3494    2.5924   -0.3830 H   0  0  0  0  0  0  0  0  0  0  0  0
    2.1823    4.6583    0.6319 H   0  0  0  0  0  0  0  0  0  0  0  0
    4.1441    4.6189    2.1465 H   0  0  0  0  0  0  0  0  0  0  0  0
    5.2762    2.4684    2.6472 H   0  0  0  0  0  0  0  0  0  0  0  0
    4.4525    0.3688    1.6437 H   0  0  0  0  0  0  0  0  0  0  0  0
  1  2  1  0  0  0  0
  1 10  1  0  0  0  0
  1 11  1  0  0  0  0
  1 12  1  0  0  0  0
  2  3  1  0  0  0  0
  2  4  1  0  0  0  0
  2 13  1  0  0  0  0
  3 14  1  0  0  0  0
  4  5  2  0  0  0  0
  4  9  1  0  0  0  0
  5  6  1  0  0  0  0
  5 15  1  0  0  0  0
  6  7  2  0  0  0  0
  6 16  1  0  0  0  0
  7  8  1  0  0  0  0
  7 17  1  0  0  0  0
  8  9  2  0  0  0  0
  8 18  1  0  0  0  0
  9 19  1  0  0  0  0
M  END
$$$$

 OpenBabel12201709253D

 14 14  0  0  0  0  0  0  0  0999 V2000
    1.0979   -0.1753    0.1964 N   0  0  0  0  0  0  0  0  0  0  0  0
    2.4621   -0.0670    0.1604 C   0  0  0  0  0  0  0  0  0  0  0  0
    3.0247    1.0187    0.1046 O   0  0  0  0  0  0  0  0  0  0  0  0
    3.2079   -1.3542    0.1901 C   0  0  0  0  0  0  0  0  0  0  0  0
    4.5940   -1.3519    0.1558 C   0  0  0  0  0  0  0  0  0  0  0  0
    5.3191   -2.5005    0.1733 N   0  0  0  0  0  0  0  0  0  0  0  0
    4.5932   -3.6417    0.2265 C   0  0  0  0  0  0  0  0  0  0  0  0
    3.2062   -3.6428    0.2628 C   0  0  0  0  0  0  0  0  0  0  0  0
    2.4734   -2.5047    0.2457 N   0  0  0  0  0  0  0  0  0  0  0  0
    0.5289    0.6583    0.1692 H   0  0  0  0  0  0  0  0  0  0  0  0
    0.6657   -1.0918    0.2368 H   0  0  0  0  0  0  0  0  0  0  0  0
    5.1639   -0.4297    0.1118 H   0  0  0  0  0  0  0  0  0  0  0  0
    5.1615   -4.5654    0.2389 H   0  0  0  0  0  0  0  0  0  0  0  0
    2.6456   -4.5703    0.3059 H   0  0  0  0  0  0  0  0  0  0  0  0
  1  2  1  0  0  0  0
  1 10  1  0  0  0  0
  1 11  1  0  0  0  0
  2  3  2  0  0  0  0
  2  4  1  0  0  0  0
  4  5  2  0  0  0  0
  4  9  1  0  0  0  0
  5  6  1  0  0  0  0
  5 12  1  0  0  0  0
  6  7  2  0  0  0  0
  7  8  1  0  0  0  0
  7 13  1  0  0  0  0
  8  9  2  0  0  0  0
  8 14  1  0  0  0  0
M  END
$$$$

 OpenBabel12201709253D

 63 66  0  0  0  0  0  0  0  0999 V2000
    0.5800   -1.4562    1.6217 C   0  0  0  0  0  0  0  0  0  0  0  0
    2.0326   -1.8115    1.8931 C   0  0  0  0  0  0  0  0  0  0  0  0
    2.9167   -0.8910    1.1790 N   0  0  0  0  0  0  0  0  0  0  0  0
    4.2967   -0.9858    1.4333 C   0  0  0  0  0  0  0  0  0  0  0  0
    4.9240   -2.2268    1.6727 C   0  0  0  0  0  0  0  0  0  0  0  0
    6.2996   -2.3204    1.9225 C   0  0  0  0  0  0  0  0  0  0  0  0
    6.8031   -3.5567    2.2613 O   0  0  0  0  0  0  0  0  0  0  0  0
    8.1593   -3.6722    2.5491 C   0  0  0  0  0  0  0  0  0  0  0  0
    8.7253   -4.8789    2.7239 C   0  0  0  0  0  0  0  0  0  0  0  0
   10.2144   -5.0617    2.9173 C   0  0  0  0  0  0  0  0  0  0  0  0
   10.6248   -6.2786    2.7869 N   0  0  0  0  0  0  0  0  0  0  0  0
   12.0341   -6.6131    2.8678 C   0  0  0  0  0  0  0  0  0  0  0  0
   12.2641   -8.0771    2.5506 C   0  0  0  0  0  0  0  0  0  0  0  0
   10.9857   -3.7922    3.2173 C   0  0  0  0  0  0  0  0  0  0  0  0
   12.4183   -3.6801    3.6418 C   0  0  0  0  0  0  0  0  0  0  0  0
   10.3500   -2.6194    3.0911 C   0  0  0  0  0  0  0  0  0  0  0  0
    8.9936   -2.4781    2.5882 C   0  0  0  0  0  0  0  0  0  0  0  0
    8.5276   -1.2690    2.1882 C   0  0  0  0  0  0  0  0  0  0  0  0
    9.4678   -0.1150    2.0780 C   0  0  0  0  0  0  0  0  0  0  0  0
   10.2781   -0.1112    0.9176 C   0  0  0  0  0  0  0  0  0  0  0  0
   11.2366    0.8777    0.7040 C   0  0  0  0  0  0  0  0  0  0  0  0
   11.3912    1.8950    1.6351 C   0  0  0  0  0  0  0  0  0  0  0  0
   10.5939    1.9147    2.7810 C   0  0  0  0  0  0  0  0  0  0  0  0
    9.6327    0.9134    3.0288 C   0  0  0  0  0  0  0  0  0  0  0  0
    8.9027    1.0474    4.3263 C   0  0  0  0  0  0  0  0  0  0  0  0
    9.0466    2.0165    5.0611 O   0  0  0  0  0  0  0  0  0  0  0  0
    8.1276   -0.0214    4.6037 O   0  0  0  0  0  0  0  0  0  0  0  0
    7.4565   -0.0051    5.8724 C   0  0  0  0  0  0  0  0  0  0  0  0
    8.3862   -0.5373    6.9472 C   0  0  0  0  0  0  0  0  0  0  0  0
    7.1016   -1.1877    1.8338 C   0  0  0  0  0  0  0  0  0  0  0  0
    6.5097    0.0308    1.4925 C   0  0  0  0  0  0  0  0  0  0  0  0
    5.1181    0.1581    1.3426 C   0  0  0  0  0  0  0  0  0  0  0  0
    4.5768    1.5495    1.1418 C   0  0  0  0  0  0  0  0  0  0  0  0
   -0.0818   -2.1613    2.1352 H   0  0  0  0  0  0  0  0  0  0  0  0
    0.3589   -1.4956    0.5504 H   0  0  0  0  0  0  0  0  0  0  0  0
    0.3461   -0.4479    1.9780 H   0  0  0  0  0  0  0  0  0  0  0  0
    2.1964   -2.8437    1.5642 H   0  0  0  0  0  0  0  0  0  0  0  0
    2.2195   -1.7522    2.9720 H   0  0  0  0  0  0  0  0  0  0  0  0
    2.5842    0.0648    1.2309 H   0  0  0  0  0  0  0  0  0  0  0  0
    4.3438   -3.1439    1.6937 H   0  0  0  0  0  0  0  0  0  0  0  0
    8.1391   -5.7890    2.6513 H   0  0  0  0  0  0  0  0  0  0  0  0
   12.4015   -6.4461    3.8844 H   0  0  0  0  0  0  0  0  0  0  0  0
   12.6030   -6.0263    2.1384 H   0  0  0  0  0  0  0  0  0  0  0  0
   11.7805   -8.7201    3.2917 H   0  0  0  0  0  0  0  0  0  0  0  0
   13.3394   -8.2879    2.5688 H   0  0  0  0  0  0  0  0  0  0  0  0
   11.8799   -8.3385    1.5608 H   0  0  0  0  0  0  0  0  0  0  0  0
   13.0225   -4.5742    3.5864 H   0  0  0  0  0  0  0  0  0  0  0  0
   12.4806   -3.3138    4.6720 H   0  0  0  0  0  0  0  0  0  0  0  0
   12.9274   -2.9538    2.9941 H   0  0  0  0  0  0  0  0  0  0  0  0
   10.8837   -1.7164    3.3786 H   0  0  0  0  0  0  0  0  0  0  0  0
   10.1763   -0.9062    0.1776 H   0  0  0  0  0  0  0  0  0  0  0  0
   11.8626    0.8477   -0.1847 H   0  0  0  0  0  0  0  0  0  0  0  0
   12.1340    2.6727    1.4775 H   0  0  0  0  0  0  0  0  0  0  0  0
   10.7412    2.7214    3.4994 H   0  0  0  0  0  0  0  0  0  0  0  0
    6.5821   -0.6574    5.7817 H   0  0  0  0  0  0  0  0  0  0  0  0
    7.0870    0.9974    6.1192 H   0  0  0  0  0  0  0  0  0  0  0  0
    8.8560   -1.4720    6.6241 H   0  0  0  0  0  0  0  0  0  0  0  0
    7.8446   -0.7123    7.8807 H   0  0  0  0  0  0  0  0  0  0  0  0
    9.1953    0.1730    7.1467 H   0  0  0  0  0  0  0  0  0  0  0  0
    7.1240    0.9220    1.3840 H   0  0  0  0  0  0  0  0  0  0  0  0
    5.3203    2.3027    1.4320 H   0  0  0  0  0  0  0  0  0  0  0  0
    3.7119    1.7265    1.7888 H   0  0  0  0  0  0  0  0  0  0  0  0
    4.3069    1.7196    0.0968 H   0  0  0  0  0  0  0  0  0  0  0  0
  1  2  1  0  0  0  0
  1 34  1  0  0  0  0
  1 35  1  0  0  0  0
  1 36  1  0  0  0  0
  2  3  1  0  0  0  0
  2 37  1  0  0  0  0
  2 38  1  0  0  0  0
  3  4  1  0  0  0  0
  3 39  1  0  0  0  0
  4  5  2  0  0  0  0
  4 32  1  0  0  0  0
  5  6  1  0  0  0  0
  5 40  1  0  0  0  0
  6  7  1  0  0  0  0
  6 30  2  0  0  0  0
  7  8  1  0  0  0  0
  8  9  2  0  0  0  0
  8 17  1  0  0  0  0
  9 10  1  0  0  0  0
  9 41  1  0  0  0  0
 10 11  2  3  0  0  0
 10 14  1  0  0  0  0
 11 12  1  0  0  0  0
 12 13  1  0  0  0  0
 12 42  1  0  0  0  0
 12 43  1  0  0  0  0
 13 44  1  0  0  0  0
 13 45  1  0  0  0  0
 13 46  1  0  0  0  0
 14 15  1  0  0  0  0
 14 16  2  0  0  0  0
 15 47  1  0  0  0  0
 15 48  1  0  0  0  0
 15 49  1  0  0  0  0
 16 17  1  0  0  0  0
 16 50  1  0  0  0  0
 17 18  2  0  0  0  0
 18 19  1  0  0  0  0
 18 30  1  0  0  0  0
 19 20  2  0  0  0  0
 19 24  1  0  0  0  0
 20 21  1  0  0  0  0
 20 51  1  0  0  0  0
 21 22  2  0  0  0  0
 21 52  1  0  0  0  0
 22 23  1  0  0  0  0
 22 53  1  0  0  0  0
 23 24  2  0  0  0  0
 23 54  1  0  0  0  0
 24 25  1  0  0  0  0
 25 26  2  0  0  0  0
 25 27  1  0  0  0  0
 27 28  1  0  0  0  0
 28 29  1  0  0  0  0
 28 55  1  0  0  0  0
 28 56  1  0  0  0  0
 29 57  1  0  0  0  0
 29 58  1  0  0  0  0
 29 59  1  0  0  0  0
 30 31  1  0  0  0  0
 31 32  2  0  0  0  0
 31 60  1  0  0  0  0
 32 33  1  0  0  0  0
 33 61  1  0  0  0  0
 33 62  1  0  0  0  0
 33 63  1  0  0  0  0
M  END
$$$$

 OpenBabel12201709253D

 17 17  0  0  0  0  0  0  0  0999 V2000
    0.9689   -0.0913   -0.2560 N   0  0  0  0  0  0  0  0  0  0  0  0
    2.3694   -0.0677   -0.0712 C   0  0  0  0  0  0  0  0  0  0  0  0
    3.0797    1.1480   -0.0956 C   0  0  0  0  0  0  0  0  0  0  0  0
    2.2372    2.6594   -0.1373 Cl  0  0  0  0  0  0  0  0  0  0  0  0
    4.4763    1.1743   -0.0587 C   0  0  0  0  0  0  0  0  0  0  0  0
    5.1926   -0.0266   -0.0332 C   0  0  0  0  0  0  0  0  0  0  0  0
    4.5176   -1.2491   -0.0354 C   0  0  0  0  0  0  0  0  0  0  0  0
    3.1188   -1.2606   -0.0783 C   0  0  0  0  0  0  0  0  0  0  0  0
    2.3250   -2.7996   -0.1055 Cl  0  0  0  0  0  0  0  0  0  0  0  0
    6.6403    0.0164    0.0181 N   0  0  0  0  0  0  0  0  0  0  0  0
    7.1776    0.9615    0.5568 O   0  0  0  0  0  0  0  0  0  0  0  0
    7.4248   -0.9779   -0.5449 O   0  0  0  0  0  0  0  0  0  0  0  0
    0.5063    0.7578    0.0636 H   0  0  0  0  0  0  0  0  0  0  0  0
    0.5288   -0.9436    0.0837 H   0  0  0  0  0  0  0  0  0  0  0  0
    5.0037    2.1272   -0.0518 H   0  0  0  0  0  0  0  0  0  0  0  0
    5.0549   -2.1928    0.0138 H   0  0  0  0  0  0  0  0  0  0  0  0
    6.7933   -1.4763   -1.0787 H   0  0  0  0  0  0  0  0  0  0  0  0
  1  2  1  0  0  0  0
  1 13  1  0  0  0  0
  1 14  1  0  0  0  0
  2  3  2  0  0  0  0
  2  8  1  0  0  0  0
  3  4  1  0  0  0  0
  3  5  1  0  0  0  0
  5  6  2  0  0  0  0
  5 15  1  0  0  0  0
  6  7  1  0  0  0  0
  6 10  1  0  0  0  0
  7  8  2  0  0  0  0
  7 16  1  0  0  0  0
  8  9  1  0  0  0  0
 10 11  2  0  0  0  0
 10 12  1  0  0  0  0
 12 17  1  0  0  0  0
M  END
$$$$

 OpenBabel12201709253D

 20 20  0  0  0  0  0  0  0  0999 V2000
    0.9770    0.1075    0.1518 C   0  0  0  0  0  0  0  0  0  0  0  0
    2.4742    0.0761   -0.0004 C   0  0  0  0  0  0  0  0  0  0  0  0
    3.1730    1.2944   -0.0714 C   0  0  0  0  0  0  0  0  0  0  0  0
    4.5604    1.3142   -0.1976 C   0  0  0  0  0  0  0  0  0  0  0  0
    5.2617    0.1100   -0.2400 C   0  0  0  0  0  0  0  0  0  0  0  0
    4.5801   -1.1097   -0.1477 C   0  0  0  0  0  0  0  0  0  0  0  0
    3.1802   -1.1397   -0.0860 C   0  0  0  0  0  0  0  0  0  0  0  0
    2.5422   -2.3715    0.1209 N   0  0  0  0  0  0  0  0  0  0  0  0
    6.7055    0.1325   -0.3562 N   0  0  0  0  0  0  0  0  0  0  0  0
    7.3242    1.0648    0.1150 O   0  0  0  0  0  0  0  0  0  0  0  0
    7.3920   -0.8567   -1.0447 O   0  0  0  0  0  0  0  0  0  0  0  0
    0.6032    1.1317    0.2556 H   0  0  0  0  0  0  0  0  0  0  0  0
    0.6699   -0.4451    1.0453 H   0  0  0  0  0  0  0  0  0  0  0  0
    0.5010   -0.3306   -0.7316 H   0  0  0  0  0  0  0  0  0  0  0  0
    2.6373    2.2399   -0.0127 H   0  0  0  0  0  0  0  0  0  0  0  0
    5.0872    2.2658   -0.2412 H   0  0  0  0  0  0  0  0  0  0  0  0
    5.1309   -2.0453   -0.0991 H   0  0  0  0  0  0  0  0  0  0  0  0
    3.0378   -3.1750   -0.2504 H   0  0  0  0  0  0  0  0  0  0  0  0
    1.5593   -2.3824   -0.1311 H   0  0  0  0  0  0  0  0  0  0  0  0
    6.6792   -1.3332   -1.4887 H   0  0  0  0  0  0  0  0  0  0  0  0
  1  2  1  0  0  0  0
  1 12  1  0  0  0  0
  1 13  1  0  0  0  0
  1 14  1  0  0  0  0
  2  3  2  0  0  0  0
  2  7  1  0  0  0  0
  3  4  1  0  0  0  0
  3 15  1  0  0  0  0
  4  5  2  0  0  0  0
  4 16  1  0  0  0  0
  5  6  1  0  0  0  0
  5  9  1  0  0  0  0
  6  7  2  0  0  0  0
  6 17  1  0  0  0  0
  7  8  1  0  0  0  0
  8 18  1  0  0  0  0
  8 19  1  0  0  0  0
  9 10  2  0  0  0  0
  9 11  1  0  0  0  0
 11 20  1  0  0  0  0
M  END
$$$$

 OpenBabel12201709253D

 19 19  0  0  0  0  0  0  0  0999 V2000
    1.0267    0.0992    0.2243 N   0  0  0  0  0  0  0  0  0  0  0  0
    2.3963    0.0691   -0.1039 C   0  0  0  0  0  0  0  0  0  0  0  0
    3.1052    1.2798   -0.1252 C   0  0  0  0  0  0  0  0  0  0  0  0
    4.4868    1.2976   -0.3183 C   0  0  0  0  0  0  0  0  0  0  0  0
    5.1840    0.0944   -0.4288 C   0  0  0  0  0  0  0  0  0  0  0  0
    4.5010   -1.1251   -0.3557 C   0  0  0  0  0  0  0  0  0  0  0  0
    3.1065   -1.1497   -0.2090 C   0  0  0  0  0  0  0  0  0  0  0  0
    2.4822   -2.3864    0.0374 N   0  0  0  0  0  0  0  0  0  0  0  0
    6.6214    0.1246   -0.6202 N   0  0  0  0  0  0  0  0  0  0  0  0
    7.1166    1.0678   -1.2047 O   0  0  0  0  0  0  0  0  0  0  0  0
    7.4457   -0.8843   -0.1482 O   0  0  0  0  0  0  0  0  0  0  0  0
    0.5715    0.9718   -0.0244 H   0  0  0  0  0  0  0  0  0  0  0  0
    0.5081   -0.7039   -0.1057 H   0  0  0  0  0  0  0  0  0  0  0  0
    2.5810    2.2228    0.0068 H   0  0  0  0  0  0  0  0  0  0  0  0
    5.0128    2.2498   -0.3605 H   0  0  0  0  0  0  0  0  0  0  0  0
    5.0362   -2.0678   -0.4207 H   0  0  0  0  0  0  0  0  0  0  0  0
    2.9344   -3.1831   -0.3979 H   0  0  0  0  0  0  0  0  0  0  0  0
    1.4820   -2.3830   -0.0986 H   0  0  0  0  0  0  0  0  0  0  0  0
    6.8605   -1.3699    0.4482 H   0  0  0  0  0  0  0  0  0  0  0  0
  1  2  1  0  0  0  0
  1 12  1  0  0  0  0
  1 13  1  0  0  0  0
  2  3  2  0  0  0  0
  2  7  1  0  0  0  0
  3  4  1  0  0  0  0
  3 14  1  0  0  0  0
  4  5  2  0  0  0  0
  4 15  1  0  0  0  0
  5  6  1  0  0  0  0
  5  9  1  0  0  0  0
  6  7  2  0  0  0  0
  6 16  1  0  0  0  0
  7  8  1  0  0  0  0
  8 17  1  0  0  0  0
  8 18  1  0  0  0  0
  9 10  2  0  0  0  0
  9 11  1  0  0  0  0
 11 19  1  0  0  0  0
M  END
$$$$

 OpenBabel12201709253D

 18 18  0  0  0  0  0  0  0  0999 V2000
    1.0926    0.0838    0.2128 N   0  0  0  0  0  0  0  0  0  0  0  0
    2.4658    0.1034   -0.0875 C   0  0  0  0  0  0  0  0  0  0  0  0
    3.1518    1.3183   -0.1535 C   0  0  0  0  0  0  0  0  0  0  0  0
    4.5438    1.3243   -0.3154 C   0  0  0  0  0  0  0  0  0  0  0  0
    5.2556    0.1190   -0.3901 C   0  0  0  0  0  0  0  0  0  0  0  0
    4.5806   -1.0962   -0.2892 C   0  0  0  0  0  0  0  0  0  0  0  0
    3.1977   -1.0952   -0.1228 C   0  0  0  0  0  0  0  0  0  0  0  0
    2.5028   -2.2730   -0.0310 O   0  0  0  0  0  0  0  0  0  0  0  0
    5.2664    2.5778   -0.4313 N   0  0  0  0  0  0  0  0  0  0  0  0
    6.2980    2.6034   -1.0711 O   0  0  0  0  0  0  0  0  0  0  0  0
    4.8234    3.7400    0.1807 O   0  0  0  0  0  0  0  0  0  0  0  0
    0.5574    0.8242   -0.2256 H   0  0  0  0  0  0  0  0  0  0  0  0
    0.7077   -0.8441    0.0284 H   0  0  0  0  0  0  0  0  0  0  0  0
    2.5847    2.2425   -0.0988 H   0  0  0  0  0  0  0  0  0  0  0  0
    6.3362    0.1260   -0.5264 H   0  0  0  0  0  0  0  0  0  0  0  0
    5.1431   -2.0241   -0.3377 H   0  0  0  0  0  0  0  0  0  0  0  0
    3.1353   -3.0081   -0.0809 H   0  0  0  0  0  0  0  0  0  0  0  0
    4.1337    3.4165    0.7743 H   0  0  0  0  0  0  0  0  0  0  0  0
  1  2  1  0  0  0  0
  1 12  1  0  0  0  0
  1 13  1  0  0  0  0
  2  3  2  0  0  0  0
  2  7  1  0  0  0  0
  3  4  1  0  0  0  0
  3 14  1  0  0  0  0
  4  5  2  0  0  0  0
  4  9  1  0  0  0  0
  5  6  1  0  0  0  0
  5 15  1  0  0  0  0
  6  7  2  0  0  0  0
  6 16  1  0  0  0  0
  7  8  1  0  0  0  0
  8 17  1  0  0  0  0
  9 10  2  0  0  0  0
  9 11  1  0  0  0  0
 11 18  1  0  0  0  0
M  END
$$$$

 OpenBabel12201709253D

 21 21  0  0  0  0  0  0  0  0999 V2000
    1.2245    0.0019   -0.5117 C   0  0  0  0  0  0  0  0  0  0  0  0
    2.4354   -0.1363    0.2217 O   0  0  0  0  0  0  0  0  0  0  0  0
    3.0388    1.0225    0.6519 C   0  0  0  0  0  0  0  0  0  0  0  0
    2.5204    2.3087    0.4792 C   0  0  0  0  0  0  0  0  0  0  0  0
    3.2284    3.4174    0.9481 C   0  0  0  0  0  0  0  0  0  0  0  0
    4.4502    3.2436    1.6053 C   0  0  0  0  0  0  0  0  0  0  0  0
    4.9784    1.9601    1.7812 C   0  0  0  0  0  0  0  0  0  0  0  0
    4.2921    0.8492    1.2788 C   0  0  0  0  0  0  0  0  0  0  0  0
    4.7640   -0.4448    1.5812 N   0  0  0  0  0  0  0  0  0  0  0  0
    5.1696    4.4098    2.0793 N   0  0  0  0  0  0  0  0  0  0  0  0
    5.0215    5.4670    1.4988 O   0  0  0  0  0  0  0  0  0  0  0  0
    6.0055    4.3593    3.1846 O   0  0  0  0  0  0  0  0  0  0  0  0
    0.8994   -0.9984   -0.8116 H   0  0  0  0  0  0  0  0  0  0  0  0
    1.3798    0.5874   -1.4235 H   0  0  0  0  0  0  0  0  0  0  0  0
    0.4354    0.4359    0.1104 H   0  0  0  0  0  0  0  0  0  0  0  0
    1.5700    2.4840   -0.0139 H   0  0  0  0  0  0  0  0  0  0  0  0
    2.8198    4.4169    0.8007 H   0  0  0  0  0  0  0  0  0  0  0  0
    5.9270    1.8054    2.2861 H   0  0  0  0  0  0  0  0  0  0  0  0
    5.7737   -0.5329    1.5748 H   0  0  0  0  0  0  0  0  0  0  0  0
    4.3042   -1.1366    0.9884 H   0  0  0  0  0  0  0  0  0  0  0  0
    5.7879    3.5030    3.5734 H   0  0  0  0  0  0  0  0  0  0  0  0
  1  2  1  0  0  0  0
  1 13  1  0  0  0  0
  1 14  1  0  0  0  0
  1 15  1  0  0  0  0
  2  3  1  0  0  0  0
  3  4  2  0  0  0  0
  3  8  1  0  0  0  0
  4  5  1  0  0  0  0
  4 16  1  0  0  0  0
  5  6  2  0  0  0  0
  5 17  1  0  0  0  0
  6  7  1  0  0  0  0
  6 10  1  0  0  0  0
  7  8  2  0  0  0  0
  7 18  1  0  0  0  0
  8  9  1  0  0  0  0
  9 19  1  0  0  0  0
  9 20  1  0  0  0  0
 10 11  2  0  0  0  0
 10 12  1  0  0  0  0
 12 21  1  0  0  0  0
M  END
$$$$

 OpenBabel12201709253D

 20 19  0  0  0  0  0  0  0  0999 V2000
    0.9778    0.0906    0.0601 C   0  0  0  0  0  0  0  0  0  0  0  0
    2.5109    0.0316    0.0677 N   0  0  0  0  0  0  0  0  0  0  0  0
    2.9566   -0.5785    1.3921 C   0  0  0  0  0  0  0  0  0  0  0  0
    2.9581   -0.8575   -1.0876 C   0  0  0  0  0  0  0  0  0  0  0  0
    3.0367    1.4805   -0.0949 C   0  0  0  0  0  0  0  0  0  0  0  0
    4.5616    1.6071   -0.1087 C   0  0  0  0  0  0  0  0  0  0  0  0
    5.0169    3.3156   -0.3002 Cl  0  0  0  0  0  0  0  0  0  0  0  0
    0.5905   -0.9263    0.1743 H   0  0  0  0  0  0  0  0  0  0  0  0
    0.6539    0.5179   -0.8935 H   0  0  0  0  0  0  0  0  0  0  0  0
    0.6528    0.7190    0.8946 H   0  0  0  0  0  0  0  0  0  0  0  0
    2.4668   -1.5503    1.5069 H   0  0  0  0  0  0  0  0  0  0  0  0
    2.6626    0.0972    2.2003 H   0  0  0  0  0  0  0  0  0  0  0  0
    4.0411   -0.7111    1.3720 H   0  0  0  0  0  0  0  0  0  0  0  0
    2.4682   -1.8305   -0.9842 H   0  0  0  0  0  0  0  0  0  0  0  0
    4.0425   -0.9822   -1.0371 H   0  0  0  0  0  0  0  0  0  0  0  0
    2.6652   -0.3782   -2.0260 H   0  0  0  0  0  0  0  0  0  0  0  0
    2.6117    2.0583    0.7351 H   0  0  0  0  0  0  0  0  0  0  0  0
    2.6123    1.8597   -1.0327 H   0  0  0  0  0  0  0  0  0  0  0  0
    5.0087    1.0603   -0.9422 H   0  0  0  0  0  0  0  0  0  0  0  0
    5.0083    1.2585    0.8253 H   0  0  0  0  0  0  0  0  0  0  0  0
  1  2  1  0  0  0  0
  1  8  1  0  0  0  0
  1  9  1  0  0  0  0
  1 10  1  0  0  0  0
  2  3  1  0  0  0  0
  2  4  1  0  0  0  0
  2  5  1  0  0  0  0
  3 11  1  0  0  0  0
  3 12  1  0  0  0  0
  3 13  1  0  0  0  0
  4 14  1  0  0  0  0
  4 15  1  0  0  0  0
  4 16  1  0  0  0  0
  5  6  1  0  0  0  0
  5 17  1  0  0  0  0
  5 18  1  0  0  0  0
  6  7  1  0  0  0  0
  6 19  1  0  0  0  0
  6 20  1  0  0  0  0
M  END
